7M0Y - removed waters
                    3D
 Structure written by MMmdl.
  0  0  0     0  0            999 V3000
M  V30 BEGIN CTAB
M  V30 COUNTS 4924 4973 0 0 0
M  V30 BEGIN ATOM
M  V30 1 N  83.9840 -19.7270 23.2000 0
M  V30 2 C  84.9540 -20.0710 24.2320 0 CFG=2
M  V30 3 C  85.6090 -21.4180 23.9460 0
M  V30 4 O  85.9830 -21.7080 22.8100 0
M  V30 5 C  84.2880 -20.0900 25.6100 0
M  V30 6 C  83.0710 -20.9920 25.6580 0
M  V30 7 O  83.2340 -22.2200 25.4930 0
M  V30 8 O  81.9520 -20.4750 25.8630 0 CHG=-1
M  V30 9 N  85.7420 -22.2400 24.9860 0
M  V30 10 C  86.3940 -23.5400 24.8810 0 CFG=2
M  V30 11 C  85.3970 -24.6830 24.7390 0
M  V30 12 O  85.5500 -25.5310 23.8550 0
M  V30 13 C  87.2890 -23.7730 26.1030 0
M  V30 14 C  88.0780 -22.5440 26.5210 0
M  V30 15 C  89.0730 -22.8380 27.6240 0
M  V30 16 O  89.8340 -23.8190 27.4930 0
M  V30 17 O  89.0890 -22.0920 28.6260 0 CHG=-1
M  V30 18 N  84.3740 -24.7280 25.5970 0
M  V30 19 C  83.3670 -25.7770 25.4820 0 CFG=2
M  V30 20 C  82.6400 -25.6920 24.1460 0
M  V30 21 O  82.2970 -26.7210 23.5500 0
M  V30 22 C  82.3750 -25.6880 26.6420 0
M  V30 23 C  81.4360 -26.8790 26.7430 0
M  V30 24 C  80.4320 -26.7360 27.8710 0
M  V30 25 O  79.7670 -25.5880 27.9280 0
M  V30 26 N  80.2530 -27.6480 28.6790 0
M  V30 27 N  82.3960 -24.4720 23.6590 0
M  V30 28 C  81.7790 -24.3130 22.3470 0 CFG=2
M  V30 29 C  82.7030 -24.8100 21.2420 0
M  V30 30 O  82.2500 -25.4540 20.2890 0
M  V30 31 C  81.4040 -22.8490 22.1160 0
M  V30 32 C  80.2530 -22.3580 22.9790 0
M  V30 33 C  79.9560 -20.8850 22.7690 0
M  V30 34 O  78.6740 -20.5420 22.7000 0
M  V30 35 N  80.8680 -20.0640 22.6650 0
M  V30 36 N  84.0010 -24.5200 21.3530 0
M  V30 37 C  84.9490 -25.0030 20.3540 0 CFG=2
M  V30 38 C  85.0350 -26.5250 20.3750 0
M  V30 39 O  85.1190 -27.1620 19.3180 0
M  V30 40 C  86.3230 -24.3760 20.5940 0
M  V30 41 C  87.2050 -24.3270 19.3600 0
M  V30 42 C  88.3780 -23.3850 19.5600 0
M  V30 43 N  89.0070 -23.0320 18.2910 0
M  V30 44 C  88.5980 -22.0390 17.5070 0
M  V30 45 N  87.5570 -21.3000 17.8640 0
M  V30 46 N  89.2280 -21.7860 16.3670 0 CHG=1
M  V30 47 N  85.0150 -27.1220 21.5680 0
M  V30 48 C  84.9730 -28.5770 21.6730 0 CFG=2
M  V30 49 C  83.7910 -29.1480 20.9010 0
M  V30 50 O  83.9530 -30.0420 20.0620 0
M  V30 51 C  84.9000 -28.9910 23.1440 0
M  V30 52 C  86.2040 -29.4950 23.7380 0
M  V30 53 C  85.9870 -29.9780 25.1670 0
M  V30 54 C  87.2150 -30.6880 25.7180 0
M  V30 55 N  88.3970 -29.7890 25.7970 0 CHG=1
M  V30 56 N  82.5880 -28.6340 21.1700 0
M  V30 57 C  81.3860 -29.1940 20.5630 0 CFG=2
M  V30 58 C  81.3590 -28.9590 19.0580 0
M  V30 59 O  80.8900 -29.8170 18.3000 0
M  V30 60 C  80.1450 -28.6060 21.2310 0
M  V30 61 C  79.9600 -29.0570 22.6710 0
M  V30 62 C  78.9150 -28.2290 23.3980 0
M  V30 63 N  78.6100 -28.7830 24.7160 0
M  V30 64 C  77.8890 -28.1580 25.6420 0
M  V30 65 N  77.4000 -26.9490 25.4020 0
M  V30 66 N  77.6610 -28.7400 26.8110 0 CHG=1
M  V30 67 N  81.8530 -27.8060 18.6010 0
M  V30 68 C  81.8870 -27.5330 17.1670 0 CFG=2
M  V30 69 C  82.8240 -28.4970 16.4470 0
M  V30 70 O  82.4600 -29.0860 15.4230 0
M  V30 71 C  82.3030 -26.0850 16.9170 0
M  V30 72 C  81.1650 -25.0950 16.6630 0
M  V30 73 C  80.5690 -25.3130 15.2820 0
M  V30 74 C  80.0970 -25.2290 17.7370 0
M  V30 75 N  84.0400 -28.6700 16.9700 0
M  V30 76 C  84.9730 -29.6100 16.3640 0 CFG=2
M  V30 77 C  84.4700 -31.0440 16.4680 0
M  V30 78 O  84.7790 -31.8730 15.6030 0
M  V30 79 C  86.3510 -29.4730 17.0140 0
M  V30 80 C  87.3480 -30.5480 16.6120 0
M  V30 81 C  87.4650 -31.6490 17.6480 0
M  V30 82 O  86.8630 -31.5110 18.7340 0
M  V30 83 O  88.1610 -32.6500 17.3790 0 CHG=-1
M  V30 84 N  83.6930 -31.3580 17.5100 0
M  V30 85 C  83.1450 -32.7040 17.6440 0 CFG=2
M  V30 86 C  82.0570 -32.9630 16.6090 0
M  V30 87 O  81.9390 -34.0800 16.0910 0
M  V30 88 C  82.6050 -32.9130 19.0570 0
M  V30 89 N  81.2520 -31.9460 16.2950 0
M  V30 90 C  80.2130 -32.1170 15.2850 0 CFG=2
M  V30 91 C  80.8180 -32.3410 13.9060 0
M  V30 92 O  80.3620 -33.2120 13.1570 0
M  V30 93 C  79.2800 -30.9060 15.2770 0
M  V30 94 C  78.2030 -30.9790 14.2320 0
M  V30 95 C  77.0870 -31.7760 14.4230 0
M  V30 96 C  78.3050 -30.2470 13.0610 0
M  V30 97 C  76.0940 -31.8460 13.4640 0
M  V30 98 C  77.3150 -30.3120 12.0980 0
M  V30 99 C  76.2090 -31.1120 12.3000 0
M  V30 100 N  81.8430 -31.5610 13.5490 0
M  V30 101 C  82.5240 -31.7840 12.2770 0 CFG=2
M  V30 102 C  83.0880 -33.1970 12.1960 0
M  V30 103 O  83.0410 -33.8340 11.1370 0
M  V30 104 C  83.6360 -30.7530 12.0790 0
M  V30 105 C  83.2520 -29.4160 11.4440 0
M  V30 106 C  82.3420 -28.6130 12.3600 0
M  V30 107 C  84.4980 -28.6200 11.0810 0
M  V30 108 N  83.6290 -33.7030 13.3070 0
M  V30 109 C  84.1450 -35.0670 13.3240 0 CFG=2
M  V30 110 C  83.0460 -36.0690 12.9920 0
M  V30 111 O  83.2070 -36.9150 12.1050 0
M  V30 112 C  84.7640 -35.3780 14.6870 0 CFG=2
M  V30 113 O  85.8530 -34.4800 14.9360 0
M  V30 114 C  85.2760 -36.8100 14.7240 0
M  V30 115 N  81.9150 -35.9860 13.6960 0
M  V30 116 C  80.8060 -36.8920 13.4160 0 CFG=2
M  V30 117 C  80.2390 -36.6640 12.0220 0
M  V30 118 O  79.7060 -37.5950 11.4090 0
M  V30 119 C  79.7120 -36.7210 14.4700 0
M  V30 120 C  80.1760 -37.0010 15.8890 0
M  V30 121 C  80.7050 -38.4130 16.0580 0
M  V30 122 O  79.9620 -39.3880 15.9340 0
M  V30 123 N  81.9990 -38.5300 16.3350 0
M  V30 124 N  80.3440 -35.4380 11.5050 0
M  V30 125 C  79.8220 -35.1490 10.1730 0 CFG=2
M  V30 126 C  80.6730 -35.7910 9.0840 0
M  V30 127 O  80.1480 -36.1630 8.0280 0
M  V30 128 C  79.7380 -33.6370 9.9650 0
M  V30 129 C  79.1140 -33.2170 8.6470 0
M  V30 130 C  79.0560 -31.7030 8.5420 0
M  V30 131 C  78.4480 -31.2520 7.2260 0
M  V30 132 N  78.4250 -29.7650 7.1270 0 CHG=1
M  V30 133 N  81.9810 -35.9320 9.3170 0
M  V30 134 C  82.8410 -36.5600 8.3210 0 CFG=2
M  V30 135 C  82.5610 -38.0520 8.1980 0
M  V30 136 O  82.7950 -38.6360 7.1340 0
M  V30 137 C  84.3110 -36.3220 8.6680 0
M  V30 138 C  85.2840 -36.9250 7.6680 0
M  V30 139 C  86.7280 -36.5850 7.9830 0
M  V30 140 O  87.0140 -35.8660 8.9390 0
M  V30 141 N  87.6470 -37.1020 7.1730 0
M  V30 142 N  82.0650 -38.6840 9.2640 0
M  V30 143 C  81.7020 -40.0940 9.1950 0 CFG=2
M  V30 144 C  80.4930 -40.3460 8.3060 0
M  V30 145 O  80.1920 -41.5100 8.0140 0
M  V30 146 C  81.4300 -40.6440 10.5990 0
M  V30 147 C  82.6360 -40.6310 11.5250 0
M  V30 148 C  82.4020 -41.5010 12.7520 0
M  V30 149 C  81.1860 -41.0450 13.5420 0
M  V30 150 N  80.9490 -41.9010 14.7380 0 CHG=1
M  V30 151 N  79.7990 -39.2980 7.8740 0
M  V30 152 C  78.6240 -39.4190 7.0220 0 CFG=2
M  V30 153 C  79.0410 -39.1280 5.5860 0
M  V30 154 O  79.4840 -38.0150 5.2720 0
M  V30 155 C  77.5020 -38.4710 7.4750 0
M  V30 156 C  76.3860 -38.4420 6.4430 0
M  V30 157 C  76.9640 -38.8940 8.8310 0
M  V30 158 N  78.9060 -40.1250 4.7160 0
M  V30 159 C  79.1950 -39.9400 3.3090 0
M  V30 160 C  77.9630 -39.5490 2.5220 0
M  V30 161 O  77.1730 -38.7170 2.9740 0
M  V30 162 N  77.7890 -40.1370 1.3420 0
M  V30 163 C  76.5920 -39.8810 0.5550 0 CFG=2
M  V30 164 C  75.3510 -40.2860 1.3400 0
M  V30 165 O  75.3020 -41.3660 1.9360 0
M  V30 166 C  76.6590 -40.6410 -0.7700 0
M  V30 167 C  75.3870 -40.5620 -1.6020 0
M  V30 168 C  75.5200 -41.2660 -2.9400 0
M  V30 169 O  75.0330 -40.7210 -3.9520 0
M  V30 170 O  76.1190 -42.3620 -2.9800 0 CHG=-1
M  V30 171 N  74.3490 -39.4120 1.3450 0
M  V30 172 C  73.1110 -39.6360 2.0870 0 CFG=2
M  V30 173 C  72.0720 -40.2370 1.1470 0
M  V30 174 O  71.6140 -39.5760 0.2090 0
M  V30 175 C  72.6070 -38.3330 2.7050 0
M  V30 176 C  73.4360 -37.7890 3.8700 0
M  V30 177 C  72.8110 -36.5260 4.4380 0
M  V30 178 C  73.5880 -38.8470 4.9490 0
M  V30 179 N  71.7020 -41.4880 1.4030 0
M  V30 180 C  70.7020 -42.1990 0.6220 0 CFG=2
M  V30 181 C  69.4650 -42.4530 1.4750 0
M  V30 182 O  69.5460 -42.5360 2.7030 0
M  V30 183 C  71.2530 -43.5290 0.1000 0
M  V30 184 C  72.6060 -43.4150 -0.5840 0
M  V30 185 C  73.1710 -44.7860 -0.9110 0
M  V30 186 C  74.5900 -44.6860 -1.4450 0
M  V30 187 N  75.1770 -46.0290 -1.7190 0 CHG=1
M  V30 188 N  68.3160 -42.5780 0.8090 0
M  V30 189 C  67.0720 -42.8020 1.5360 0 CFG=2
M  V30 190 C  67.0720 -44.1470 2.2520 0
M  V30 191 O  66.3980 -44.3010 3.2770 0
M  V30 192 C  65.8800 -42.7110 0.5840 0
M  V30 193 C  64.5470 -42.7970 1.3050 0
M  V30 194 O  64.5330 -42.6960 2.5470 0
M  V30 195 O  63.5130 -42.9680 0.6270 0 CHG=-1
M  V30 196 N  67.8190 -45.1240 1.7370 0
M  V30 197 C  67.8420 -46.4400 2.3670 0 CFG=2
M  V30 198 C  68.6630 -46.4440 3.6510 0
M  V30 199 O  68.3940 -47.2480 4.5510 0
M  V30 200 C  68.3880 -47.4860 1.3930 0
M  V30 201 C  67.3090 -48.0660 0.5000 0
M  V30 202 O  66.1510 -48.1660 0.9520 0
M  V30 203 O  67.6210 -48.4280 -0.6540 0 CHG=-1
M  V30 204 N  69.6560 -45.5600 3.7590 0
M  V30 205 C  70.5290 -45.5470 4.9280 0 CFG=2
M  V30 206 C  69.8430 -45.0390 6.1900 0
M  V30 207 O  70.4740 -45.0450 7.2540 0
M  V30 208 C  71.7730 -44.6980 4.6450 0
M  V30 209 C  72.6550 -45.2980 3.5710 0
M  V30 210 O  72.5710 -46.5230 3.3430 0
M  V30 211 O  73.4420 -44.5450 2.9600 0 CHG=-1
M  V30 212 N  68.5860 -44.6090 6.1120 0
M  V30 213 C  67.8730 -44.0540 7.2550 0 CFG=2
M  V30 214 C  66.8310 -45.0400 7.7640 0
M  V30 215 O  66.1440 -45.6950 6.9750 0
M  V30 216 C  67.1920 -42.7340 6.8920 0
M  V30 217 C  68.1490 -41.6270 6.5640 0
M  V30 218 C  68.9180 -41.0400 7.5560 0
M  V30 219 C  68.2750 -41.1650 5.2650 0
M  V30 220 C  69.7970 -40.0210 7.2570 0
M  V30 221 C  69.1560 -40.1430 4.9610 0
M  V30 222 C  69.9160 -39.5700 5.9590 0
M  V30 223 N  66.7160 -45.1340 9.0870 0
M  V30 224 C  65.6700 -45.9130 9.7380 0 CFG=2
M  V30 225 C  64.8490 -44.9660 10.6030 0
M  V30 226 O  65.3980 -44.2730 11.4670 0
M  V30 227 C  66.2570 -47.0490 10.5780 0
M  V30 228 C  65.3030 -48.2180 10.7630 0
M  V30 229 C  65.8040 -49.2280 11.7740 0
M  V30 230 O  66.6240 -48.8510 12.6370 0
M  V30 231 O  65.3760 -50.4000 11.7060 0 CHG=-1
M  V30 232 N  63.5400 -44.9370 10.3680 0
M  V30 233 C  62.6660 -43.9720 11.0180 0 CFG=2
M  V30 234 C  62.4290 -44.3610 12.4720 0
M  V30 235 O  62.0330 -45.4940 12.7680 0
M  V30 236 C  61.3400 -43.8770 10.2610 0
M  V30 237 C  60.4690 -42.6990 10.6540 0
M  V30 238 C  59.6660 -42.1990 9.4590 0
M  V30 239 C  58.9250 -43.3350 8.7680 0
M  V30 240 N  58.1780 -42.8620 7.5680 0 CHG=1
M  V30 241 N  62.6740 -43.4160 13.3800 0
M  V30 242 C  62.5110 -43.6460 14.8140 0 CFG=2
M  V30 243 C  61.1410 -43.1500 15.2610 0
M  V30 244 O  60.2310 -43.9470 15.5170 0
M  V30 245 C  63.6260 -42.9570 15.6220 0 CFG=2
M  V30 246 C  64.9890 -43.5600 15.2840 0
M  V30 247 C  63.3450 -43.0570 17.1130 0
M  V30 248 C  66.1330 -42.9470 16.0620 0
M  V30 249 N  60.9900 -41.8310 15.3610 0
M  V30 250 C  59.7540 -41.2320 15.8330 0 CFG=2
M  V30 251 C  59.5280 -39.9140 15.1090 0
M  V30 252 O  60.4720 -39.2780 14.6300 0
M  V30 253 C  59.7840 -41.0030 17.3480 0
M  V30 254 O  60.7790 -40.0550 17.7000 0
M  V30 255 N  58.2650 -39.5090 15.0350 0
M  V30 256 C  57.9200 -38.2240 14.4480 0 CFG=2
M  V30 257 C  58.1770 -37.1070 15.4500 0
M  V30 258 O  57.8910 -37.2440 16.6430 0
M  V30 259 C  56.4590 -38.2070 14.0020 0
M  V30 260 C  56.0010 -36.8710 13.4360 0
M  V30 261 C  54.7790 -37.0010 12.5460 0
M  V30 262 O  54.6230 -38.0570 11.8960 0
M  V30 263 O  53.9740 -36.0470 12.4960 0 CHG=-1
M  V30 264 N  58.7330 -36.0030 14.9590 0
M  V30 265 C  59.0630 -34.8570 15.7970 0 CFG=2
M  V30 266 C  58.0650 -33.7180 15.6590 0
M  V30 267 O  57.7450 -33.0610 16.6530 0
M  V30 268 C  60.4680 -34.3440 15.4580 0
M  V30 269 C  61.6190 -35.3220 15.6970 0
M  V30 270 C  62.9430 -34.7160 15.2610 0
M  V30 271 C  61.6730 -35.7400 17.1600 0
M  V30 272 N  57.5640 -33.4750 14.4560 0
M  V30 273 C  56.6060 -32.4040 14.2510 0
M  V30 274 C  56.2820 -32.2620 12.7810 0
M  V30 275 O  56.7500 -33.0350 11.9370 0
M  V30 276 N  55.4680 -31.2540 12.4870 0
M  V30 277 C  55.0610 -30.9630 11.1180 0 CFG=2
M  V30 278 C  54.4370 -29.5750 11.0950 0
M  V30 279 O  54.1930 -28.9650 12.1400 0
M  V30 280 C  54.0880 -32.0140 10.5800 0
M  V30 281 N  54.1840 -29.0820 9.8860 0
M  V30 282 C  53.5970 -27.7710 9.7070 0
M  V30 283 C  53.5490 -27.3460 8.2550 0
M  V30 284 O  54.2270 -27.9380 7.4110 0
M  V30 285 N  52.7500 -26.3220 7.9520 0
M  V30 286 C  52.6010 -25.8310 6.5860 0 CFG=2
M  V30 287 C  53.9560 -25.6730 5.9080 0
M  V30 288 O  54.5330 -24.5800 5.8980 0
M  V30 289 C  51.8370 -24.5040 6.5740 0
M  V30 290 C  51.9030 -23.7810 7.9050 0
M  V30 291 O  51.6980 -24.3820 8.9610 0
M  V30 292 N  52.1920 -22.4860 7.8630 0
M  V30 293 N  54.4660 -26.7630 5.3420 0
M  V30 294 C  55.7600 -26.7610 4.6910 0
M  V30 295 C  56.3190 -28.1580 4.5180 0
M  V30 296 O  56.7230 -28.5410 3.4170 0
M  V30 297 N  56.3420 -28.9300 5.6010 0
M  V30 298 C  56.8370 -30.2910 5.5460 0
M  V30 299 C  56.5800 -31.0800 6.8150 0
M  V30 300 O  55.6370 -30.7950 7.5590 0
M  V30 301 N  57.4180 -32.0820 7.0680 0
M  V30 302 C  57.3100 -32.9150 8.2560 0 CFG=2
M  V30 303 C  58.7110 -33.3640 8.6430 0
M  V30 304 O  59.5730 -33.5760 7.7840 0
M  V30 305 C  56.3750 -34.1240 8.0220 0
M  V30 306 C  56.8830 -34.9730 6.8700 0
M  V30 307 C  56.2480 -34.9560 9.2900 0
M  V30 308 N  58.9390 -33.5100 9.9470 0
M  V30 309 C  60.2590 -33.8080 10.4890 0 CFG=2
M  V30 310 C  60.1840 -35.0920 11.3030 0
M  V30 311 O  59.3300 -35.2250 12.1870 0
M  V30 312 C  60.7910 -32.6480 11.3470 0
M  V30 313 C  62.1980 -32.9550 11.8420 0
M  V30 314 C  60.7660 -31.3500 10.5570 0
M  V30 315 N  61.0820 -36.0290 11.0090 0
M  V30 316 C  61.1960 -37.2850 11.7350 0 CFG=2
M  V30 317 C  62.5510 -37.3630 12.4220 0
M  V30 318 O  63.5460 -36.8220 11.9310 0
M  V30 319 C  61.0470 -38.4970 10.8020 0
M  V30 320 C  59.7290 -38.5680 10.0890 0
M  V30 321 C  58.6650 -39.2610 10.6400 0
M  V30 322 C  59.5570 -37.9580 8.8590 0
M  V30 323 C  57.4510 -39.3350 9.9860 0
M  V30 324 C  58.3460 -38.0270 8.1970 0
M  V30 325 C  57.2910 -38.7170 8.7610 0
M  V30 326 N  62.5840 -38.0430 13.5640 0
M  V30 327 C  63.8490 -38.4510 14.1570 0 CFG=2
M  V30 328 C  64.2780 -39.7660 13.5220 0
M  V30 329 O  63.5130 -40.7340 13.5060 0
M  V30 330 C  63.7260 -38.6060 15.6740 0
M  V30 331 C  65.0580 -38.8600 16.3640 0
M  V30 332 C  64.8860 -39.5060 17.7280 0
M  V30 333 C  64.1680 -38.5910 18.7020 0
M  V30 334 N  64.0180 -39.2310 20.0410 0 CHG=1
M  V30 335 N  65.4980 -39.7980 12.9860 0
M  V30 336 C  65.9770 -40.9350 12.2150 0 CFG=2
M  V30 337 C  67.3690 -41.3200 12.6970 0
M  V30 338 O  68.0400 -40.5700 13.4090 0
M  V30 339 C  65.9930 -40.6430 10.7000 0
M  V30 340 C  64.6070 -40.2310 10.2280 0
M  V30 341 C  67.0150 -39.5650 10.3780 0
M  V30 342 N  67.7960 -42.5140 12.2950 0
M  V30 343 C  69.1230 -43.0320 12.6010 0 CFG=2
M  V30 344 C  69.8140 -43.3800 11.2930 0
M  V30 345 O  69.2950 -44.1770 10.5030 0
M  V30 346 C  69.0390 -44.2590 13.5120 0
M  V30 347 O  70.3300 -44.6820 13.9200 0
M  V30 348 N  70.9770 -42.7760 11.0600 0
M  V30 349 C  71.7650 -43.0410 9.8590 0 CFG=2
M  V30 350 C  72.5230 -44.3460 10.0700 0
M  V30 351 O  73.5440 -44.3830 10.7620 0
M  V30 352 C  72.7110 -41.8800 9.5710 0
M  V30 353 C  73.4380 -42.0020 8.2700 0
M  V30 354 N  74.7410 -42.4450 8.1840 0
M  V30 355 C  73.0450 -41.7380 7.0000 0
M  V30 356 C  75.1190 -42.4480 6.9180 0
M  V30 357 N  74.1090 -42.0250 6.1790 0
M  V30 358 N  72.0200 -45.4240 9.4700 0
M  V30 359 C  72.6010 -46.7420 9.7080 0 CFG=2
M  V30 360 C  74.0890 -46.8160 9.3880 0
M  V30 361 O  74.8310 -47.4230 10.1800 0
M  V30 362 C  71.8110 -47.7940 8.9180 0
M  V30 363 C  70.4450 -48.1040 9.5210 0
M  V30 364 C  69.3390 -48.1120 8.4770 0
M  V30 365 C  69.4550 -49.3020 7.5380 0
M  V30 366 N  68.3010 -49.3720 6.5980 0 CHG=1
M  V30 367 N  74.5920 -46.2470 8.2890 0
M  V30 368 C  76.0350 -46.3370 8.0090 0 CFG=2
M  V30 369 C  76.9200 -45.7100 9.0800 0
M  V30 370 O  78.1340 -45.9580 9.0710 0
M  V30 371 C  76.1810 -45.6020 6.6720 0
M  V30 372 C  74.8320 -45.7100 6.0370 0
M  V30 373 C  73.8500 -45.6400 7.1700 0
M  V30 374 N  76.3620 -44.9110 9.9950 0
M  V30 375 C  77.1640 -44.2720 11.0290 0 CFG=2
M  V30 376 C  76.4960 -44.2410 12.3980 0
M  V30 377 O  77.0890 -43.6990 13.3360 0
M  V30 378 C  77.5200 -42.8380 10.6220 0
M  V30 379 O  76.3650 -42.0210 10.6000 0
M  V30 380 N  75.2850 -44.7890 12.5530 0
M  V30 381 C  74.6320 -44.8350 13.8490 0
M  V30 382 C  74.2250 -43.4920 14.3760 0
M  V30 383 O  73.5850 -43.4340 15.4510 0
M  V30 384 N  74.5470 -42.4170 13.6830 0
M  V30 385 C  74.1960 -41.0880 14.1320 0 CFG=2
M  V30 386 C  72.6860 -40.8930 14.0920 0
M  V30 387 O  72.0060 -41.3430 13.1660 0
M  V30 388 C  74.8860 -40.0330 13.2650 0
M  V30 389 C  76.4170 -40.0140 13.2590 0
M  V30 390 C  76.9170 -38.8780 12.3860 0
M  V30 391 C  76.9750 -39.8930 14.6690 0
M  V30 392 N  72.1630 -40.2280 15.1140 0
M  V30 393 C  70.7500 -39.8750 15.1860 0 CFG=2
M  V30 394 C  70.6020 -38.4480 14.6800 0
M  V30 395 O  71.2490 -37.5270 15.1940 0
M  V30 396 C  70.2030 -40.0170 16.6130 0
M  V30 397 C  68.7860 -39.4740 16.6840 0
M  V30 398 C  70.2420 -41.4710 17.0530 0
M  V30 399 N  69.7520 -38.2620 13.6740 0
M  V30 400 C  69.5610 -36.9680 13.0410 0 CFG=2
M  V30 401 C  68.0780 -36.6430 12.9520 0
M  V30 402 O  67.2180 -37.5170 13.0840 0
M  V30 403 C  70.1750 -36.9350 11.6330 0
M  V30 404 C  71.6890 -37.0380 11.6040 0
M  V30 405 S  72.3310 -37.1970 9.9240 0
M  V30 406 C  71.6740 -38.7970 9.4710 0
M  V30 407 N  67.7940 -35.3640 12.7300 0
M  V30 408 C  66.4530 -34.8930 12.4110 0 CFG=2
M  V30 409 C  66.3610 -34.6730 10.9080 0
M  V30 410 O  67.1920 -33.9640 10.3310 0
M  V30 411 C  66.1290 -33.6010 13.1640 0
M  V30 412 N  65.3630 -35.2860 10.2760 0
M  V30 413 C  65.2200 -35.2660 8.8230 0 CFG=2
M  V30 414 C  63.9000 -34.5960 8.4600 0
M  V30 415 O  62.8280 -35.1770 8.6660 0
M  V30 416 C  65.2910 -36.6770 8.2470 0
M  V30 417 C  65.0870 -36.7300 6.7440 0
M  V30 418 C  65.0290 -38.1610 6.2420 0
M  V30 419 N  64.8330 -38.2210 4.7970 0
M  V30 420 C  64.7450 -39.3510 4.1030 0
M  V30 421 N  64.8340 -40.5200 4.7250 0
M  V30 422 N  64.5690 -39.3140 2.7890 0 CHG=1
M  V30 423 N  63.9830 -33.3850 7.9120 0
M  V30 424 C  62.8100 -32.6740 7.4290 0 CFG=2
M  V30 425 C  62.5310 -33.0630 5.9840 0
M  V30 426 O  63.4510 -33.1510 5.1650 0
M  V30 427 C  63.0140 -31.1630 7.5360 0
M  V30 428 C  61.8310 -30.3400 7.0490 0
M  V30 429 C  62.2300 -28.8910 6.8220 0
M  V30 430 C  62.6580 -28.2130 8.1140 0
M  V30 431 N  61.4890 -27.8020 8.9410 0 CHG=1
M  V30 432 N  61.2540 -33.2930 5.6760 0
M  V30 433 C  60.8220 -33.7260 4.3510 0 CFG=2
M  V30 434 C  59.8810 -32.6770 3.7770 0
M  V30 435 O  58.7320 -32.5580 4.2150 0
M  V30 436 C  60.1440 -35.0940 4.4200 0
M  V30 437 C  61.0440 -36.2820 4.7620 0
M  V30 438 C  60.2420 -37.3770 5.4410 0
M  V30 439 C  61.7160 -36.8160 3.5080 0
M  V30 440 N  60.3650 -31.9190 2.7980 0
M  V30 441 C  59.5670 -30.9170 2.1010 0 CFG=2
M  V30 442 C  59.0410 -31.5420 0.8190 0
M  V30 443 O  59.8230 -31.9810 -0.0340 0
M  V30 444 C  60.3910 -29.6570 1.7930 0 CFG=2
M  V30 445 C  61.0950 -29.1490 3.0510 0
M  V30 446 C  59.5010 -28.5760 1.1980 0
M  V30 447 C  62.0780 -28.0270 2.7810 0
M  V30 448 N  57.7190 -31.5840 0.6730 0
M  V30 449 C  57.0870 -32.0760 -0.5480 0 CFG=2
M  V30 450 C  56.6300 -30.8680 -1.3540 0
M  V30 451 O  55.6150 -30.2410 -1.0350 0
M  V30 452 C  55.9220 -33.0110 -0.2400 0
M  V30 453 C  55.2980 -33.6120 -1.4630 0
M  V30 454 N  54.4170 -32.9210 -2.2660 0
M  V30 455 C  55.4380 -34.8360 -2.0260 0
M  V30 456 C  54.0370 -33.6940 -3.2680 0
M  V30 457 N  54.6420 -34.8620 -3.1460 0
M  V30 458 N  57.3850 -30.5410 -2.3990 0
M  V30 459 C  57.0600 -29.4440 -3.3000 0 CFG=2
M  V30 460 C  56.7490 -29.9990 -4.6810 0
M  V30 461 O  57.4750 -30.8610 -5.1860 0
M  V30 462 C  58.2140 -28.4420 -3.3830 0
M  V30 463 C  58.5070 -27.6100 -2.1350 0
M  V30 464 C  59.6460 -26.6340 -2.4060 0
M  V30 465 C  57.2580 -26.8710 -1.6800 0
M  V30 466 N  55.6630 -29.5120 -5.2830 0
M  V30 467 C  55.3190 -29.8650 -6.6590 0 CFG=2
M  V30 468 C  55.8860 -28.7830 -7.5750 0
M  V30 469 O  55.1960 -27.8600 -8.0150 0
M  V30 470 C  53.8120 -30.0180 -6.8190 0
M  V30 471 C  53.2430 -31.2520 -6.1400 0
M  V30 472 C  51.7410 -31.3750 -6.3140 0
M  V30 473 O  51.0580 -30.3290 -6.3470 0
M  V30 474 O  51.2450 -32.5170 -6.4230 0 CHG=-1
M  V30 475 N  57.1800 -28.9100 -7.8580 0
M  V30 476 C  57.9150 -27.9340 -8.6520 0 CFG=2
M  V30 477 C  58.5690 -28.6430 -9.8300 0
M  V30 478 O  58.8470 -29.8460 -9.7790 0
M  V30 479 C  58.9760 -27.1980 -7.8060 0 CFG=2
M  V30 480 C  60.0240 -28.1910 -7.2950 0
M  V30 481 C  58.3190 -26.4660 -6.6470 0
M  V30 482 C  61.0970 -27.5630 -6.4350 0
M  V30 483 N  58.8120 -27.8850 -10.8880 0
M  V30 484 C  59.5270 -28.4270 -12.0300 0 CFG=2
M  V30 485 C  60.9050 -28.9170 -11.6050 0
M  V30 486 O  61.5300 -28.3080 -10.7130 0
M  V30 487 C  59.6470 -27.3800 -13.1440 0
M  V30 488 C  60.3420 -26.0970 -12.7180 0
M  V30 489 C  60.3830 -25.0850 -13.8560 0
M  V30 490 C  58.9970 -24.5470 -14.1780 0
M  V30 491 N  58.4290 -23.7530 -13.0520 0 CHG=1
M  V30 492 N  61.4160 -29.9960 -12.1870 0
M  V30 493 C  62.7030 -30.5380 -11.7320 0 CFG=2
M  V30 494 C  63.8390 -29.5320 -11.7910 0
M  V30 495 O  64.6760 -29.4990 -10.8800 0
M  V30 496 C  62.9370 -31.7190 -12.6850 0
M  V30 497 C  61.5720 -32.0950 -13.1660 0
M  V30 498 C  60.8100 -30.8100 -13.2560 0
M  V30 499 N  63.8960 -28.7090 -12.8410 0
M  V30 500 C  64.9800 -27.7420 -12.9620 0 CFG=2
M  V30 501 C  65.0720 -26.8540 -11.7290 0
M  V30 502 O  66.1720 -26.5770 -11.2360 0
M  V30 503 C  64.7890 -26.8960 -14.2220 0
M  V30 504 N  63.9280 -26.3980 -11.2140 0
M  V30 505 C  63.9350 -25.5780 -10.0080 0 CFG=2
M  V30 506 C  64.3330 -26.4130 -8.7980 0
M  V30 507 O  65.0860 -25.9550 -7.9300 0
M  V30 508 C  62.5640 -24.9090 -9.8060 0 CFG=2
M  V30 509 C  62.3500 -23.8070 -10.8440 0
M  V30 510 C  62.4410 -24.3580 -8.3940 0
M  V30 511 C  61.0180 -23.1010 -10.7190 0
M  V30 512 N  63.8380 -27.6490 -8.7190 0
M  V30 513 C  64.1750 -28.5080 -7.5880 0 CFG=2
M  V30 514 C  65.6750 -28.7690 -7.5170 0
M  V30 515 O  66.2650 -28.7480 -6.4320 0
M  V30 516 C  63.4020 -29.8230 -7.6820 0
M  V30 517 C  63.9760 -30.9440 -6.8360 0
M  V30 518 C  64.3910 -32.1130 -7.7100 0
M  V30 519 N  63.2510 -32.6940 -8.4100 0
M  V30 520 C  63.3510 -33.5430 -9.4290 0
M  V30 521 N  62.2560 -34.0220 -10.0070 0
M  V30 522 N  64.5470 -33.9050 -9.8760 0 CHG=1
M  V30 523 N  66.3090 -29.0200 -8.6660 0
M  V30 524 C  67.7490 -29.2550 -8.6700 0 CFG=2
M  V30 525 C  68.5060 -28.0270 -8.1840 0
M  V30 526 O  69.5250 -28.1490 -7.4930 0
M  V30 527 C  68.2140 -29.6580 -10.0690 0
M  V30 528 C  67.6240 -30.9800 -10.5220 0
M  V30 529 O  67.2500 -31.8210 -9.7030 0
M  V30 530 N  67.5370 -31.1700 -11.8320 0
M  V30 531 N  68.0260 -26.8340 -8.5350 0
M  V30 532 C  68.6650 -25.6140 -8.0550 0 CFG=2
M  V30 533 C  68.5030 -25.4720 -6.5460 0
M  V30 534 O  69.4060 -24.9790 -5.8610 0
M  V30 535 C  68.0830 -24.3980 -8.7810 0
M  V30 536 C  68.7510 -23.0790 -8.4290 0
M  V30 537 C  68.1380 -21.9050 -9.1640 0
M  V30 538 O  67.3310 -22.0840 -10.0760 0
M  V30 539 N  68.5180 -20.6950 -8.7680 0
M  V30 540 N  67.3590 -25.9000 -6.0100 0
M  V30 541 C  67.1440 -25.8400 -4.5680 0 CFG=2
M  V30 542 C  68.1600 -26.7180 -3.8460 0
M  V30 543 O  68.7990 -26.2930 -2.8760 0
M  V30 544 C  65.6990 -26.2450 -4.2250 0 CFG=2
M  V30 545 C  64.7120 -25.1990 -4.7460 0
M  V30 546 C  65.5420 -26.4470 -2.7240 0
M  V30 547 C  63.2590 -25.5770 -4.5500 0
M  V30 548 N  68.3210 -27.9580 -4.3100 0
M  V30 549 C  69.3010 -28.8560 -3.7040 0 CFG=2
M  V30 550 C  70.6900 -28.2330 -3.7590 0
M  V30 551 O  71.4230 -28.2140 -2.7640 0
M  V30 552 C  69.2740 -30.2310 -4.3980 0 CFG=2
M  V30 553 C  67.8820 -30.8570 -4.2910 0
M  V30 554 C  70.3230 -31.1510 -3.7980 0
M  V30 555 C  67.4420 -31.1290 -2.8690 0
M  V30 556 N  71.0700 -27.7090 -4.9270 0
M  V30 557 C  72.3780 -27.0780 -5.0680 0 CFG=2
M  V30 558 C  72.5300 -25.9130 -4.0960 0
M  V30 559 O  73.5450 -25.7990 -3.3980 0
M  V30 560 C  72.5780 -26.6190 -6.5130 0
M  V30 561 C  73.8690 -25.8520 -6.7550 0
M  V30 562 C  74.1880 -25.7380 -8.2420 0
M  V30 563 N  73.0550 -25.2490 -9.0250 0
M  V30 564 C  72.2690 -26.0250 -9.7710 0
M  V30 565 N  72.4960 -27.3300 -9.8420 0
M  V30 566 N  71.2590 -25.4940 -10.4500 0 CHG=1
M  V30 567 N  71.5200 -25.0410 -4.0290 0
M  V30 568 C  71.5920 -23.8950 -3.1260 0 CFG=2
M  V30 569 C  71.6640 -24.3290 -1.6670 0
M  V30 570 O  72.3040 -23.6540 -0.8510 0
M  V30 571 C  70.3940 -22.9730 -3.3490 0
M  V30 572 C  70.3920 -22.2600 -4.6890 0
M  V30 573 C  69.1850 -21.3630 -4.8690 0
M  V30 574 O  68.2190 -21.5030 -4.0900 0
M  V30 575 O  69.1990 -20.5130 -5.7850 0 CHG=-1
M  V30 576 N  71.0160 -25.4450 -1.3190 0
M  V30 577 C  71.0110 -25.9010 0.0670 0 CFG=2
M  V30 578 C  72.3940 -26.3010 0.5590 0
M  V30 579 O  72.6150 -26.3470 1.7740 0
M  V30 580 C  70.0490 -27.0790 0.2370 0
M  V30 581 C  68.5560 -26.7550 0.2410 0
M  V30 582 C  67.7440 -28.0080 0.5120 0
M  V30 583 C  68.2480 -25.6820 1.2700 0
M  V30 584 N  73.3280 -26.5960 -0.3470 0
M  V30 585 C  74.6570 -27.0270 0.0670 0 CFG=2
M  V30 586 C  75.4500 -25.9230 0.7520 0
M  V30 587 O  76.5260 -26.2010 1.2920 0
M  V30 588 C  75.4330 -27.5590 -1.1390 0
M  V30 589 C  74.6970 -28.6490 -1.9060 0
M  V30 590 C  74.2880 -29.8130 -1.0220 0
M  V30 591 O  75.0350 -30.2280 -0.1350 0
M  V30 592 N  73.0940 -30.3420 -1.2560 0
M  V30 593 N  74.9500 -24.6830 0.7450 0
M  V30 594 C  75.6030 -23.6170 1.5020 0 CFG=2
M  V30 595 C  75.5700 -23.9250 2.9900 0
M  V30 596 O  76.4210 -23.4510 3.7520 0
M  V30 597 C  74.9430 -22.2600 1.1980 0
M  V30 598 C  75.6400 -21.1460 1.9670 0
M  V30 599 C  74.9580 -21.9800 -0.2980 0
M  V30 600 N  74.5940 -24.7240 3.4300 0
M  V30 601 C  74.4480 -25.0200 4.8500 0 CFG=2
M  V30 602 C  75.6570 -25.7510 5.4180 0
M  V30 603 O  75.8340 -25.7720 6.6420 0
M  V30 604 C  73.1750 -25.8330 5.0870 0
M  V30 605 C  71.8680 -25.0890 4.8020 0
M  V30 606 C  70.6670 -25.9910 5.0240 0
M  V30 607 C  71.7710 -23.8390 5.6620 0
M  V30 608 N  76.4900 -26.3530 4.5680 0
M  V30 609 C  77.7290 -26.9470 5.0550 0 CFG=2
M  V30 610 C  78.6880 -25.9020 5.6070 0
M  V30 611 O  79.5290 -26.2330 6.4490 0
M  V30 612 C  78.4130 -27.7430 3.9440 0
M  V30 613 C  77.7230 -29.0260 3.6010 0
M  V30 614 N  77.8150 -30.1530 4.3880 0
M  V30 615 C  76.9360 -29.3630 2.5510 0
M  V30 616 C  77.1100 -31.1290 3.8420 0
M  V30 617 N  76.5670 -30.6760 2.7260 0
M  V30 618 N  78.5740 -24.6510 5.1590 0
M  V30 619 C  79.4470 -23.5820 5.6260 0 CFG=2
M  V30 620 C  78.9690 -22.9500 6.9280 0
M  V30 621 O  79.7410 -22.2210 7.5610 0
M  V30 622 C  79.5750 -22.4950 4.5550 0
M  V30 623 C  79.9330 -23.0090 3.1700 0
M  V30 624 C  81.1390 -23.9280 3.1810 0
M  V30 625 O  80.9530 -25.1570 3.0610 0
M  V30 626 O  82.2730 -23.4220 3.3190 0 CHG=-1
M  V30 627 N  77.7290 -23.2050 7.3410 0
M  V30 628 C  77.1680 -22.6150 8.5560 0 CFG=2
M  V30 629 C  77.5470 -23.4960 9.7390 0
M  V30 630 O  76.8780 -24.4910 10.0290 0
M  V30 631 C  75.6560 -22.4670 8.4310 0
M  V30 632 S  75.1100 -21.5100 6.9960 0
M  V30 633 N  78.6270 -23.1290 10.4290 0
M  V30 634 C  79.1260 -23.8710 11.5870 0 CFG=2
M  V30 635 C  79.2780 -22.8910 12.7450 0
M  V30 636 O  80.3460 -22.3060 12.9400 0
M  V30 637 C  80.4390 -24.5730 11.2620 0
M  V30 638 C  80.3100 -25.5460 10.1060 0
M  V30 639 O  81.4030 -25.7510 9.3800 0
M  V30 640 N  79.2400 -26.1080 9.8700 0
M  V30 641 N  78.2070 -22.7180 13.5140 0
M  V30 642 C  78.1920 -21.8370 14.6690 0 CFG=2
M  V30 643 C  77.4150 -22.5020 15.7930 0
M  V30 644 O  76.4870 -23.2780 15.5350 0
M  V30 645 C  77.5600 -20.4750 14.3400 0
M  V30 646 O  77.5340 -19.6320 15.4800 0
M  V30 647 N  77.7710 -22.2200 17.0510 0
M  V30 648 C  77.0110 -22.7820 18.1790 0 CFG=2
M  V30 649 C  75.5960 -22.2410 18.2910 0
M  V30 650 O  74.8400 -22.7090 19.1480 0
M  V30 651 C  77.8540 -22.3820 19.3970 0
M  V30 652 C  78.5750 -21.1540 18.9600 0
M  V30 653 C  78.8760 -21.3570 17.5020 0
M  V30 654 N  75.2180 -21.2730 17.4570 0
M  V30 655 C  73.8730 -20.7190 17.4480 0 CFG=2
M  V30 656 C  73.1000 -21.1060 16.1950 0
M  V30 657 O  71.9910 -20.6040 15.9800 0
M  V30 658 C  73.9350 -19.1980 17.5890 0
M  V30 659 C  74.8070 -18.7470 18.7400 0
M  V30 660 C  74.3020 -18.6720 20.0320 0
M  V30 661 C  76.1400 -18.4130 18.5360 0
M  V30 662 C  75.0980 -18.2700 21.0870 0
M  V30 663 C  76.9410 -18.0110 19.5870 0
M  V30 664 C  76.4170 -17.9410 20.8600 0
M  V30 665 O  77.2120 -17.5390 21.9100 0
M  V30 666 N  73.6590 -21.9820 15.3650 0
M  V30 667 C  72.9970 -22.4930 14.1710 0 CFG=2
M  V30 668 C  72.9370 -24.0090 14.2830 0
M  V30 669 O  73.9470 -24.6540 14.5890 0
M  V30 670 C  73.7290 -22.0670 12.8850 0 CFG=2
M  V30 671 C  73.8220 -20.5420 12.8020 0
M  V30 672 C  73.0260 -22.6290 11.6610 0
M  V30 673 C  72.4790 -19.8510 12.7690 0
M  V30 674 N  71.7530 -24.5760 14.0390 0
M  V30 675 C  71.5930 -26.0220 14.1080 0 CFG=2
M  V30 676 C  72.5460 -26.6910 13.1290 0
M  V30 677 O  72.7040 -26.2540 11.9810 0
M  V30 678 C  70.1340 -26.4140 13.8230 0
M  V30 679 C  69.9870 -27.9280 13.8060 0
M  V30 680 C  69.2080 -25.7930 14.8600 0
M  V30 681 N  73.1920 -27.7600 13.5840 0
M  V30 682 C  74.1500 -28.4480 12.7340 0
M  V30 683 C  73.4790 -29.0400 11.5060 0
M  V30 684 O  72.3630 -29.5630 11.5710 0
M  V30 685 N  74.1770 -28.9590 10.3760 0
M  V30 686 C  73.6780 -29.4440 9.0970 0 CFG=2
M  V30 687 C  74.5140 -30.6320 8.6370 0
M  V30 688 O  75.7460 -30.5480 8.5920 0
M  V30 689 C  73.7100 -28.3320 8.0460 0
M  V30 690 C  73.3780 -28.7980 6.6550 0
M  V30 691 C  72.0830 -29.1630 6.3190 0
M  V30 692 C  74.3600 -28.8620 5.6790 0
M  V30 693 C  71.7770 -29.5880 5.0400 0
M  V30 694 C  74.0590 -29.2850 4.3990 0
M  V30 695 C  72.7660 -29.6490 4.0790 0
M  V30 696 N  73.8410 -31.7320 8.2990 0
M  V30 697 C  74.5040 -32.9460 7.8350 0 CFG=2
M  V30 698 C  74.4770 -33.0990 6.3220 0
M  V30 699 O  75.4870 -33.4920 5.7300 0
M  V30 700 C  73.8640 -34.1810 8.4800 0
M  V30 701 C  74.3060 -34.4320 9.9050 0
M  V30 702 C  75.5480 -34.9860 10.1760 0
M  V30 703 C  73.4790 -34.1220 10.9750 0
M  V30 704 C  75.9600 -35.2190 11.4740 0
M  V30 705 C  73.8820 -34.3530 12.2790 0
M  V30 706 C  75.1230 -34.9010 12.5220 0
M  V30 707 O  75.5290 -35.1330 13.8160 0
M  V30 708 N  73.3480 -32.8030 5.6830 0
M  V30 709 C  73.2520 -32.9150 4.2400 0
M  V30 710 C  71.8290 -32.8850 3.7250 0
M  V30 711 O  70.9060 -33.3470 4.4000 0
M  V30 712 N  71.6380 -32.3420 2.5270 0
M  V30 713 C  70.3340 -32.2710 1.8850 0 CFG=2
M  V30 714 C  70.3790 -33.0180 0.5610 0
M  V30 715 O  71.3700 -32.9420 -0.1720 0
M  V30 716 C  69.9070 -30.8170 1.6540 0
M  V30 717 N  69.3040 -33.7400 0.2590 0
M  V30 718 C  69.2080 -34.4980 -0.9800 0 CFG=2
M  V30 719 C  67.7450 -34.5760 -1.3980 0
M  V30 720 O  66.8620 -33.9900 -0.7630 0
M  V30 721 C  69.8220 -35.8930 -0.8230 0
M  V30 722 C  69.1260 -36.7530 0.1940 0
M  V30 723 C  69.5630 -36.7870 1.5070 0
M  V30 724 C  68.0400 -37.5320 -0.1650 0
M  V30 725 C  68.9280 -37.5790 2.4420 0
M  V30 726 C  67.3990 -38.3250 0.7660 0
M  V30 727 C  67.8440 -38.3480 2.0700 0
M  V30 728 N  67.4940 -35.3120 -2.4810 0
M  V30 729 C  66.1560 -35.4440 -3.0430 0 CFG=2
M  V30 730 C  65.9000 -36.9000 -3.3910 0
M  V30 731 O  66.7260 -37.5360 -4.0500 0
M  V30 732 C  65.9920 -34.5640 -4.2860 0
M  V30 733 C  64.6870 -34.7700 -5.0210 0
M  V30 734 C  63.5510 -34.0510 -4.6750 0
M  V30 735 C  64.5950 -35.6780 -6.0670 0
M  V30 736 C  62.3580 -34.2340 -5.3490 0
M  V30 737 C  63.4050 -35.8680 -6.7450 0
M  V30 738 C  62.2910 -35.1440 -6.3830 0
M  V30 739 O  61.1050 -35.3290 -7.0540 0
M  V30 740 N  64.7570 -37.4210 -2.9470 0
M  V30 741 C  64.3760 -38.7920 -3.2520 0 CFG=2
M  V30 742 C  62.8740 -38.9460 -3.0570 0
M  V30 743 O  62.2940 -38.3250 -2.1560 0
M  V30 744 C  65.1290 -39.8030 -2.3760 0
M  V30 745 O  64.6690 -39.7580 -1.0370 0
M  V30 746 N  62.2590 -39.7620 -3.9040 0
M  V30 747 C  60.8370 -40.0720 -3.8060 0 CFG=2
M  V30 748 C  59.9900 -38.8020 -3.7670 0
M  V30 749 O  59.0150 -38.7000 -3.0210 0
M  V30 750 C  60.5590 -40.9550 -2.5910 0
M  V30 751 C  61.3970 -42.2200 -2.5890 0
M  V30 752 O  62.2630 -42.3600 -3.4760 0
M  V30 753 O  61.1880 -43.0750 -1.7030 0 CHG=-1
M  V30 754 N  60.3760 -37.8210 -4.5790 0
M  V30 755 C  59.6010 -36.6060 -4.7410 0
M  V30 756 C  59.5780 -35.6630 -3.5600 0
M  V30 757 O  58.7290 -34.7730 -3.5130 0
M  V30 758 N  60.4920 -35.8230 -2.6020 0
M  V30 759 C  60.5500 -34.9540 -1.4320 0 CFG=2
M  V30 760 C  61.9880 -34.5310 -1.1820 0
M  V30 761 O  62.9010 -35.3640 -1.2280 0
M  V30 762 C  59.9920 -35.6490 -0.1840 0
M  V30 763 C  58.5720 -36.1560 -0.3290 0
M  V30 764 C  58.0370 -36.7370 0.9620 0
M  V30 765 O  57.3880 -35.9930 1.7280 0
M  V30 766 O  58.2780 -37.9360 1.2180 0 CHG=-1
M  V30 767 N  62.1860 -33.2420 -0.9160 0
M  V30 768 C  63.4980 -32.7310 -0.5380 0 CFG=2
M  V30 769 C  63.7230 -33.0350 0.9370 0
M  V30 770 O  62.9850 -32.5490 1.8020 0
M  V30 771 C  63.6110 -31.2260 -0.8130 0 CFG=2
M  V30 772 C  63.4260 -30.9360 -2.3020 0
M  V30 773 C  64.9520 -30.6990 -0.3250 0
M  V30 774 C  63.4920 -29.4590 -2.6440 0
M  V30 775 N  64.7380 -33.8420 1.2260 0
M  V30 776 C  65.0940 -34.1950 2.5930 0 CFG=2
M  V30 777 C  66.3020 -33.3750 3.0230 0
M  V30 778 O  67.3100 -33.3230 2.3090 0
M  V30 779 C  65.4000 -35.6900 2.7150 0
M  V30 780 O  64.3220 -36.4750 2.2360 0
M  V30 781 N  66.1980 -32.7300 4.1820 0
M  V30 782 C  67.2970 -31.9660 4.7570 0 CFG=2
M  V30 783 C  67.5600 -32.5390 6.1400 0
M  V30 784 O  66.7070 -32.4420 7.0300 0
M  V30 785 C  66.9920 -30.4670 4.8250 0 CFG=2
M  V30 786 C  66.2060 -30.0200 3.5910 0
M  V30 787 C  68.2890 -29.6760 4.9310 0
M  V30 788 C  65.8380 -28.5480 3.5920 0
M  V30 789 N  68.7330 -33.1390 6.3200 0
M  V30 790 C  69.0950 -33.8010 7.5620 0 CFG=2
M  V30 791 C  69.9410 -32.8680 8.4160 0
M  V30 792 O  70.9640 -32.3510 7.9560 0
M  V30 793 C  69.8500 -35.1010 7.2820 0
M  V30 794 S  68.9570 -36.2450 6.2060 0
M  V30 795 N  69.5100 -32.6550 9.6560 0
M  V30 796 C  70.1660 -31.7570 10.5930 0 CFG=2
M  V30 797 C  70.3490 -32.4720 11.9240 0
M  V30 798 O  69.8660 -33.5900 12.1240 0
M  V30 799 C  69.3570 -30.4670 10.7690 0
M  V30 800 C  67.8550 -30.6900 10.7700 0
M  V30 801 S  66.9050 -29.1710 10.6180 0
M  V30 802 C  65.2360 -29.8160 10.5520 0
M  V30 803 N  71.0570 -31.8210 12.8440 0
M  V30 804 C  71.2990 -32.4240 14.1490 0 CFG=2
M  V30 805 C  70.0180 -32.4410 14.9710 0
M  V30 806 O  69.2090 -31.5110 14.9120 0
M  V30 807 C  72.3970 -31.6720 14.8990 0
M  V30 808 C  72.0390 -30.2500 15.2870 0
M  V30 809 C  72.9410 -29.7060 16.3810 0
M  V30 810 O  73.0270 -30.3430 17.4510 0
M  V30 811 O  73.5710 -28.6480 16.1700 0 CHG=-1
M  V30 812 N  69.8380 -33.5100 15.7420 0
M  V30 813 C  68.6510 -33.6640 16.5760 0 CFG=2
M  V30 814 C  68.7800 -32.8020 17.8260 0
M  V30 815 O  69.7620 -32.9180 18.5710 0
M  V30 816 C  68.4570 -35.1300 16.9540 0
M  V30 817 C  67.3910 -35.3500 17.9830 0
M  V30 818 N  66.0630 -35.0570 17.7550 0
M  V30 819 C  67.4580 -35.8320 19.2450 0
M  V30 820 C  65.3580 -35.3520 18.8320 0
M  V30 821 N  66.1810 -35.8240 19.7510 0
M  V30 822 N  67.7940 -31.9410 18.0550 0
M  V30 823 C  67.7210 -31.1190 19.2630 0 CFG=2
M  V30 824 C  66.6520 -31.7350 20.1610 0
M  V30 825 O  65.4530 -31.5960 19.9020 0
M  V30 826 C  67.4090 -29.6680 18.9170 0
M  V30 827 C  68.4150 -29.0210 17.9750 0
M  V30 828 S  69.9310 -28.4720 18.7890 0
M  V30 829 C  69.3260 -27.0720 19.7270 0
M  V30 830 N  67.0880 -32.4200 21.2200 0
M  V30 831 C  66.1670 -33.1520 22.0820 0 CFG=2
M  V30 832 C  65.2620 -32.2450 22.8990 0
M  V30 833 O  64.3790 -32.7550 23.6010 0
M  V30 834 C  66.9480 -34.0780 23.0140 0
M  V30 835 C  67.8370 -33.3200 23.9790 0
M  V30 836 O  68.2100 -32.1690 23.6660 0
M  V30 837 O  68.1640 -33.8780 25.0480 0 CHG=-1
M  V30 838 N  65.4490 -30.9320 22.8360 0
M  V30 839 C  64.5810 -30.0110 23.5400 0
M  V30 840 C  63.3760 -29.6050 22.7140 0
M  V30 841 O  62.3160 -29.2910 23.2620 0
M  V30 842 N  63.5250 -29.6200 21.3930 0
M  V30 843 C  62.4620 -29.2030 20.5050 0
M  V30 844 C  62.5370 -27.7250 20.1770 0
M  V30 845 O  63.5200 -27.0310 20.4600 0
M  V30 846 N  61.4670 -27.2400 19.5570 0
M  V30 847 C  61.3510 -25.8270 19.2340 0 CFG=2
M  V30 848 C  60.7240 -25.0770 20.4010 0
M  V30 849 O  59.9230 -25.6290 21.1600 0
M  V30 850 C  60.5130 -25.6230 17.9700 0
M  V30 851 O  59.1570 -25.9780 18.1900 0
M  V30 852 N  61.0990 -23.8030 20.5410 0
M  V30 853 C  60.5390 -22.9880 21.6110 0 CFG=2
M  V30 854 C  59.0270 -22.8630 21.5010 0
M  V30 855 O  58.3780 -22.4460 22.4680 0
M  V30 856 C  61.1820 -21.6020 21.6170 0
M  V30 857 C  62.6360 -21.5520 22.0890 0
M  V30 858 C  63.0880 -20.1110 22.2820 0
M  V30 859 C  62.8140 -22.3510 23.3680 0
M  V30 860 N  58.4480 -23.2090 20.3480 0
M  V30 861 C  56.9950 -23.2730 20.2390 0 CFG=2
M  V30 862 C  56.4350 -24.3820 21.1220 0
M  V30 863 O  55.5050 -24.1580 21.9060 0
M  V30 864 C  56.5890 -23.4810 18.7830 0
M  V30 865 C  55.1290 -23.8520 18.6360 0
M  V30 866 O  54.2680 -23.0950 19.1380 0
M  V30 867 O  54.8410 -24.8990 18.0190 0 CHG=-1
M  V30 868 N  56.9960 -25.5880 21.0090 0
M  V30 869 C  56.5620 -26.6910 21.8590 0 CFG=2
M  V30 870 C  56.8650 -26.4060 23.3230 0
M  V30 871 O  56.0230 -26.6450 24.1980 0
M  V30 872 C  57.2330 -27.9900 21.4130 0
M  V30 873 C  56.8630 -28.4270 20.0050 0
M  V30 874 C  57.8290 -29.4480 19.4400 0
M  V30 875 O  59.0450 -29.2860 19.5320 0
M  V30 876 N  57.2910 -30.5130 18.8550 0
M  V30 877 N  58.0640 -25.8960 23.6120 0
M  V30 878 C  58.4260 -25.5840 24.9920 0 CFG=2
M  V30 879 C  57.4430 -24.5850 25.5880 0
M  V30 880 O  57.0950 -24.6640 26.7720 0
M  V30 881 C  59.8730 -25.0630 25.0610 0
M  V30 882 C  60.2620 -24.7510 26.4980 0
M  V30 883 C  60.8330 -26.0720 24.4490 0
M  V30 884 N  56.9750 -23.6330 24.7780 0
M  V30 885 C  56.0240 -22.6430 25.2700 0 CFG=2
M  V30 886 C  54.7310 -23.3040 25.7300 0
M  V30 887 O  54.2000 -22.9860 26.8010 0
M  V30 888 C  55.7420 -21.6030 24.1850 0
M  V30 889 C  54.7930 -20.4700 24.5820 0
M  V30 890 C  55.3280 -19.7300 25.7950 0
M  V30 891 C  54.5810 -19.5140 23.4160 0
M  V30 892 N  54.2020 -24.2320 24.9240 0
M  V30 893 C  52.9810 -24.9320 25.3130 0 CFG=2
M  V30 894 C  53.1890 -25.7160 26.5990 0
M  V30 895 O  52.3280 -25.6960 27.4910 0
M  V30 896 C  52.5290 -25.8610 24.1840 0
M  V30 897 C  52.0980 -25.1300 22.9210 0
M  V30 898 C  51.9070 -26.0880 21.7520 0
M  V30 899 C  51.5340 -25.3400 20.4780 0
M  V30 900 N  51.5210 -26.2380 19.2900 0 CHG=1
M  V30 901 N  54.3210 -26.4090 26.7230 0
M  V30 902 C  54.5850 -27.1780 27.9310 0 CFG=2
M  V30 903 C  54.7640 -26.2790 29.1470 0
M  V30 904 O  54.5330 -26.7300 30.2750 0
M  V30 905 C  55.8320 -28.0500 27.7370 0
M  V30 906 C  55.6890 -29.1360 26.6800 0
M  V30 907 C  57.0460 -29.7250 26.3290 0
M  V30 908 C  56.9240 -30.9160 25.3910 0
M  V30 909 N  56.3580 -32.1070 26.0830 0 CHG=1
M  V30 910 N  55.1500 -25.0250 28.9400 0
M  V30 911 C  55.4220 -24.1130 30.0370 0 CFG=2
M  V30 912 C  54.3580 -23.0460 30.2330 0
M  V30 913 O  54.3150 -22.4380 31.3070 0
M  V30 914 C  56.7830 -23.4310 29.8330 0
M  V30 915 N  53.5000 -22.8100 29.2440 0
M  V30 916 C  52.5160 -21.7500 29.3430 0
M  V30 917 C  53.1280 -20.3870 29.0940 0
M  V30 918 O  52.8380 -19.7400 28.0820 0
M  V30 919 N  53.9710 -19.9380 30.0210 0
M  V30 920 C  54.7870 -18.7500 29.8350 0 CFG=2
M  V30 921 C  56.2370 -19.1080 30.1330 0
M  V30 922 O  56.5250 -20.0730 30.8460 0
M  V30 923 C  54.3340 -17.5890 30.7330 0
M  V30 924 C  52.8260 -17.4070 30.8230 0
M  V30 925 C  52.4670 -15.9960 31.2730 0
M  V30 926 N  53.2980 -15.5330 32.3820 0
M  V30 927 C  52.9650 -15.6350 33.6650 0
M  V30 928 N  51.8090 -16.1870 34.0110 0
M  V30 929 N  53.7860 -15.1830 34.6030 0 CHG=1
M  V30 930 N  57.1490 -18.3280 29.5780 0
M  V30 931 C  58.5860 -18.5130 29.7720 0 CFG=2
M  V30 932 C  59.1090 -17.3430 30.5940 0
M  V30 933 O  58.7890 -16.1890 30.2820 0
M  V30 934 C  59.3380 -18.6200 28.4330 0 CFG=2
M  V30 935 C  58.7700 -19.7740 27.6050 0
M  V30 936 C  60.8260 -18.8220 28.6730 0
M  V30 937 C  59.5470 -20.0560 26.3360 0
M  V30 938 N  59.9020 -17.5870 31.6350 0
M  V30 939 C  60.3440 -16.4870 32.4980 0 CFG=2
M  V30 940 C  61.2400 -15.5070 31.7580 0
M  V30 941 O  61.9400 -15.8590 30.8020 0
M  V30 942 C  61.1100 -17.2000 33.6190 0
M  V30 943 C  60.6430 -18.6260 33.5640 0
M  V30 944 C  60.3610 -18.8970 32.1230 0
M  V30 945 N  61.2090 -14.2540 32.2190 0
M  V30 946 C  62.0640 -13.2260 31.6370 0 CFG=2
M  V30 947 C  63.5350 -13.6150 31.7310 0
M  V30 948 O  64.3080 -13.3850 30.7930 0
M  V30 949 C  61.8120 -11.8890 32.3320 0
M  V30 950 C  62.7720 -10.7810 31.9410 0
M  V30 951 C  62.5160 -9.4990 32.7100 0
M  V30 952 O  61.3950 -9.3350 33.2390 0
M  V30 953 O  63.4380 -8.6570 32.7900 0 CHG=-1
M  V30 954 N  63.9410 -14.2060 32.8580 0
M  V30 955 C  65.3270 -14.6380 33.0130 0 CFG=2
M  V30 956 C  65.7410 -15.5750 31.8850 0
M  V30 957 O  66.8760 -15.5100 31.3990 0
M  V30 958 C  65.5140 -15.3200 34.3690 0
M  V30 959 C  65.0570 -14.4900 35.5590 0
M  V30 960 C  66.2170 -13.9110 36.3470 0
M  V30 961 O  67.3780 -14.2270 36.0880 0
M  V30 962 N  65.9050 -13.0610 37.3200 0
M  V30 963 N  64.8320 -16.4520 31.4550 0
M  V30 964 C  65.1510 -17.4060 30.4000 0 CFG=2
M  V30 965 C  65.1370 -16.7310 29.0360 0
M  V30 966 O  66.0210 -16.9690 28.2040 0
M  V30 967 C  64.1790 -18.5960 30.4510 0 CFG=2
M  V30 968 C  64.2920 -19.3240 31.7930 0
M  V30 969 C  64.4450 -19.5500 29.2970 0
M  V30 970 C  65.6300 -19.9900 32.0160 0
M  V30 971 N  64.1390 -15.8830 28.7800 0
M  V30 972 C  64.0700 -15.1950 27.4950 0 CFG=2
M  V30 973 C  65.2920 -14.3160 27.2690 0
M  V30 974 O  65.6570 -14.0480 26.1190 0
M  V30 975 C  62.7870 -14.3690 27.4100 0
M  V30 976 C  61.4910 -15.1830 27.4160 0
M  V30 977 C  60.2770 -14.2730 27.3290 0
M  V30 978 C  61.4920 -16.1920 26.2800 0
M  V30 979 N  65.9350 -13.8590 28.3440 0
M  V30 980 C  67.1850 -13.1340 28.1850 0
M  V30 981 C  68.2500 -13.9760 27.5100 0
M  V30 982 O  68.8970 -13.5380 26.5560 0
M  V30 983 N  68.4430 -15.2040 27.9970 0
M  V30 984 C  69.3790 -16.1150 27.3490 0 CFG=2
M  V30 985 C  68.9520 -16.4100 25.9170 0
M  V30 986 O  69.7870 -16.4370 25.0040 0
M  V30 987 C  69.4890 -17.4120 28.1510 0
M  V30 988 C  69.9490 -17.2240 29.5880 0
M  V30 989 C  71.3570 -16.6610 29.6470 0
M  V30 990 C  71.8150 -16.4780 31.0830 0
M  V30 991 N  73.1930 -15.9110 31.1550 0 CHG=1
M  V30 992 N  67.6540 -16.6330 25.7020 0
M  V30 993 C  67.1580 -16.8970 24.3530 0 CFG=2
M  V30 994 C  67.4350 -15.7080 23.4410 0
M  V30 995 O  67.8360 -15.8750 22.2830 0
M  V30 996 C  65.6590 -17.2430 24.3920 0
M  V30 997 C  65.1140 -17.3960 22.9810 0
M  V30 998 C  65.4290 -18.5100 25.1980 0
M  V30 999 N  67.2240 -14.4900 23.9470 0
M  V30 1000 C  67.4830 -13.3030 23.1390 0 CFG=2
M  V30 1001 C  68.9520 -13.2170 22.7450 0
M  V30 1002 O  69.2780 -12.8940 21.5950 0
M  V30 1003 C  67.0530 -12.0470 23.8950 0
M  V30 1004 O  65.6610 -12.0630 24.1560 0
M  V30 1005 N  69.8550 -13.5030 23.6860 0
M  V30 1006 C  71.2840 -13.4760 23.3770 0 CFG=2
M  V30 1007 C  71.6020 -14.4650 22.2630 0
M  V30 1008 O  72.3340 -14.1480 21.3150 0
M  V30 1009 C  72.1130 -13.7660 24.6410 0 CFG=2
M  V30 1010 C  71.8850 -12.6750 25.6890 0
M  V30 1011 C  73.5900 -13.8830 24.2940 0
M  V30 1012 C  72.6370 -12.9050 26.9820 0
M  V30 1013 N  71.0570 -15.6790 22.3570 0
M  V30 1014 C  71.3100 -16.6860 21.3320 0 CFG=2
M  V30 1015 C  70.7870 -16.2300 19.9740 0
M  V30 1016 O  71.5000 -16.2930 18.9680 0
M  V30 1017 C  70.6770 -18.0160 21.7370 0
M  V30 1018 N  69.5370 -15.7630 19.9280 0
M  V30 1019 C  68.9600 -15.3170 18.6640 0 CFG=2
M  V30 1020 C  69.7570 -14.1520 18.0930 0
M  V30 1021 O  70.0190 -14.0940 16.8850 0
M  V30 1022 C  67.4770 -14.9470 18.8540 0
M  V30 1023 C  66.9310 -14.2780 17.6000 0
M  V30 1024 C  66.6640 -16.1870 19.1970 0
M  V30 1025 N  70.1550 -13.2050 18.9490 0
M  V30 1026 C  70.9270 -12.0570 18.4770 0 CFG=2
M  V30 1027 C  72.2540 -12.5120 17.8870 0
M  V30 1028 O  72.6810 -12.0250 16.8320 0
M  V30 1029 C  71.1330 -11.0430 19.6160 0 CFG=2
M  V30 1030 C  69.8100 -10.3680 19.9780 0
M  V30 1031 C  72.1770 -10.0090 19.2250 0
M  V30 1032 C  69.9540 -9.2490 20.9900 0
M  V30 1033 N  72.9330 -13.4470 18.5550 0
M  V30 1034 C  74.2110 -13.9290 18.0430 0 CFG=2
M  V30 1035 C  74.0210 -14.7720 16.7890 0
M  V30 1036 O  74.8340 -14.7030 15.8590 0
M  V30 1037 C  74.9460 -14.7210 19.1230 0
M  V30 1038 C  75.4050 -13.8780 20.3040 0
M  V30 1039 C  76.3150 -14.6710 21.2260 0
M  V30 1040 C  76.8950 -13.7930 22.3210 0
M  V30 1041 N  77.8660 -14.5390 23.1690 0 CHG=1
M  V30 1042 N  72.9550 -15.5720 16.7450 0
M  V30 1043 C  72.6850 -16.3560 15.5500 0
M  V30 1044 C  72.4620 -15.4840 14.3290 0
M  V30 1045 O  73.0620 -15.7020 13.2730 0
M  V30 1046 N  71.5890 -14.4840 14.4590 0
M  V30 1047 C  71.3760 -13.5500 13.3580 0 CFG=2
M  V30 1048 C  72.6700 -12.8390 12.9860 0
M  V30 1049 O  72.9240 -12.5690 11.8060 0
M  V30 1050 C  70.2920 -12.5350 13.7300 0
M  V30 1051 C  68.8900 -13.0840 14.0010 0
M  V30 1052 C  67.9300 -11.9580 14.3470 0
M  V30 1053 C  68.3790 -13.8760 12.8040 0
M  V30 1054 N  73.5030 -12.5280 13.9830 0
M  V30 1055 C  74.7720 -11.8630 13.7100 0 CFG=2
M  V30 1056 C  75.6950 -12.7590 12.8930 0
M  V30 1057 O  76.2990 -12.3160 11.9070 0
M  V30 1058 C  75.4440 -11.4520 15.0190 0 CFG=2
M  V30 1059 O  74.6600 -10.4410 15.6650 0
M  V30 1060 C  76.8410 -10.9120 14.7550 0
M  V30 1061 N  75.8180 -14.0280 13.2890 0
M  V30 1062 C  76.6670 -14.9500 12.5400 0 CFG=2
M  V30 1063 C  76.1990 -15.0780 11.0950 0
M  V30 1064 O  77.0190 -15.1770 10.1770 0
M  V30 1065 C  76.6910 -16.3190 13.2190 0
M  V30 1066 C  77.4040 -17.3780 12.4110 0
M  V30 1067 C  78.7830 -17.5110 12.4720 0
M  V30 1068 C  76.6980 -18.2390 11.5820 0
M  V30 1069 C  79.4410 -18.4750 11.7330 0
M  V30 1070 C  77.3460 -19.2040 10.8380 0
M  V30 1071 C  78.7170 -19.3180 10.9180 0
M  V30 1072 O  79.3680 -20.2800 10.1790 0
M  V30 1073 N  74.8840 -15.0800 10.8730 0
M  V30 1074 C  74.3670 -15.1830 9.5150 0 CFG=2
M  V30 1075 C  74.5780 -13.8920 8.7340 0
M  V30 1076 O  74.8140 -13.9340 7.5210 0
M  V30 1077 C  72.8840 -15.5520 9.5440 0
M  V30 1078 C  72.5370 -16.9100 10.1550 0
M  V30 1079 C  71.0380 -17.1650 10.0870 0
M  V30 1080 C  73.3060 -18.0200 9.4580 0
M  V30 1081 N  74.5030 -12.7430 9.4060 0
M  V30 1082 C  74.6420 -11.4680 8.7110 0 CFG=2
M  V30 1083 C  76.0840 -11.2090 8.2990 0
M  V30 1084 O  76.3430 -10.7470 7.1820 0
M  V30 1085 C  74.1230 -10.3350 9.5970 0
M  V30 1086 C  74.4550 -8.9330 9.1110 0
M  V30 1087 C  73.8920 -8.6650 7.7280 0
M  V30 1088 N  73.6590 -7.2390 7.5170 0
M  V30 1089 C  73.3400 -6.6950 6.3470 0
M  V30 1090 N  73.2230 -7.4560 5.2670 0
M  V30 1091 N  73.1430 -5.3870 6.2580 0 CHG=1
M  V30 1092 N  77.0390 -11.5050 9.1810 0
M  V30 1093 C  78.4400 -11.1750 8.9290 0 CFG=2
M  V30 1094 C  79.1560 -12.2750 8.1480 0
M  V30 1095 O  79.7390 -12.0130 7.0900 0
M  V30 1096 C  79.1620 -10.9040 10.2550 0
M  V30 1097 C  78.5510 -9.7840 11.0840 0
M  V30 1098 C  79.3980 -9.4270 12.2930 0
M  V30 1099 O  79.5890 -8.2200 12.5550 0
M  V30 1100 O  79.8800 -10.3540 12.9780 0 CHG=-1
M  V30 1101 N  79.1200 -13.5080 8.6550 0
M  V30 1102 C  79.9150 -14.5800 8.0640 0 CFG=2
M  V30 1103 C  79.3400 -15.0930 6.7480 0
M  V30 1104 O  80.0610 -15.7540 5.9950 0
M  V30 1105 C  80.0510 -15.7390 9.0500 0
M  V30 1106 C  81.3550 -15.7450 9.8320 0
M  V30 1107 C  81.4870 -14.5180 10.7180 0
M  V30 1108 C  82.7940 -14.5440 11.4950 0
M  V30 1109 N  82.9150 -13.3840 12.4210 0 CHG=1
M  V30 1110 N  78.0720 -14.8110 6.4520 0
M  V30 1111 C  77.4580 -15.3340 5.2410 0 CFG=2
M  V30 1112 C  76.5740 -14.3310 4.5140 0
M  V30 1113 O  76.0730 -14.6550 3.4310 0
M  V30 1114 C  76.6390 -16.5960 5.5590 0
M  V30 1115 C  77.4430 -17.6950 6.1790 0
M  V30 1116 N  78.1970 -18.5750 5.4350 0
M  V30 1117 C  77.6110 -18.0560 7.4740 0
M  V30 1118 C  78.7960 -19.4330 6.2440 0
M  V30 1119 N  78.4570 -19.1390 7.4870 0
M  V30 1120 N  76.3580 -13.1340 5.0560 0
M  V30 1121 C  75.5310 -12.1190 4.4180 0 CFG=2
M  V30 1122 C  74.1310 -12.6330 4.1020 0
M  V30 1123 O  73.4470 -12.0970 3.2230 0
M  V30 1124 C  76.2050 -11.5810 3.1480 0
M  V30 1125 C  77.5710 -10.9540 3.4000 0
M  V30 1126 C  78.2250 -10.5050 2.1040 0
M  V30 1127 C  79.6000 -9.9090 2.3600 0
M  V30 1128 N  80.2690 -9.4990 1.0960 0 CHG=1
M  V30 1129 N  73.6980 -13.6720 4.8040 0
M  V30 1130 C  72.3570 -14.2210 4.6640 0 CFG=2
M  V30 1131 C  71.5460 -13.8260 5.8890 0
M  V30 1132 O  72.0900 -13.6080 6.9780 0
M  V30 1133 C  72.3760 -15.7540 4.4870 0 CFG=2
M  V30 1134 C  73.0990 -16.4180 5.6580 0
M  V30 1135 C  73.0310 -16.1300 3.1660 0
M  V30 1136 C  73.3220 -17.9020 5.4750 0
M  V30 1137 N  70.2330 -13.7270 5.7060 0
M  V30 1138 C  69.3340 -13.3100 6.7710 0 CFG=2
M  V30 1139 C  68.2090 -14.3240 6.9240 0
M  V30 1140 O  67.7710 -14.9440 5.9510 0
M  V30 1141 C  68.7760 -11.9070 6.5070 0
M  V30 1142 C  69.8050 -10.8100 6.7330 0
M  V30 1143 S  69.4500 -9.2980 5.8280 0
M  V30 1144 C  69.5590 -9.8890 4.1390 0
M  V30 1145 N  67.7480 -14.4800 8.1660 0
M  V30 1146 C  66.8450 -15.5740 8.5090 0 CFG=2
M  V30 1147 C  65.5680 -15.5230 7.6760 0
M  V30 1148 O  65.2600 -16.4560 6.9280 0
M  V30 1149 C  66.5240 -15.5300 10.0030 0
M  V30 1150 C  66.1260 -16.8550 10.5700 0
M  V30 1151 N  64.9210 -17.4580 10.2790 0
M  V30 1152 C  66.7750 -17.6960 11.4100 0
M  V30 1153 C  64.8440 -18.6130 10.9160 0
M  V30 1154 N  65.9570 -18.7820 11.6080 0
M  V30 1155 N  64.8010 -14.4400 7.8040 0
M  V30 1156 C  63.5630 -14.2170 7.0650 0 CFG=2
M  V30 1157 C  62.4090 -15.0740 7.5680 0
M  V30 1158 O  61.3330 -15.0700 6.9570 0
M  V30 1159 C  63.7510 -14.4540 5.5610 0
M  V30 1160 C  64.8390 -13.5990 4.9380 0
M  V30 1161 C  65.1170 -13.9950 3.5000 0
M  V30 1162 N  66.2270 -13.2310 2.9390 0
M  V30 1163 C  66.0860 -12.0960 2.2620 0
M  V30 1164 N  64.8770 -11.5920 2.0530 0
M  V30 1165 N  67.1550 -11.4670 1.7910 0 CHG=1
M  V30 1166 N  62.5930 -15.8060 8.6660 0
M  V30 1167 C  61.5110 -16.5940 9.2450 0 CFG=2
M  V30 1168 C  61.7890 -16.8930 10.7130 0
M  V30 1169 O  61.8090 -18.0570 11.1230 0
M  V30 1170 C  61.3130 -17.8970 8.4710 0
M  V30 1171 C  60.0670 -18.6500 8.9050 0
M  V30 1172 O  59.2200 -18.0430 9.5920 0
M  V30 1173 O  59.9370 -19.8480 8.5670 0 CHG=-1
M  V30 1174 N  62.0050 -15.8500 11.5070 0
M  V30 1175 C  62.2920 -16.0010 12.9290 0 CFG=2
M  V30 1176 C  60.9750 -16.0950 13.6870 0
M  V30 1177 O  60.1240 -15.2050 13.5870 0
M  V30 1178 C  63.1480 -14.8390 13.4520 0
M  V30 1179 C  63.3330 -14.9550 14.9570 0
M  V30 1180 C  64.4920 -14.8130 12.7460 0
M  V30 1181 N  60.8090 -17.1740 14.4420 0
M  V30 1182 C  59.6260 -17.3780 15.2650 0 CFG=2
M  V30 1183 C  59.9310 -18.4900 16.2590 0
M  V30 1184 O  60.9530 -19.1790 16.1380 0
M  V30 1185 C  58.3930 -17.7200 14.4080 0
M  V30 1186 C  58.5990 -18.8730 13.4390 0
M  V30 1187 C  57.4420 -18.9710 12.4550 0
M  V30 1188 C  57.6970 -20.0310 11.3960 0
M  V30 1189 N  56.6810 -19.9890 10.3070 0 CHG=1
M  V30 1190 N  59.0650 -18.6870 17.2580 0
M  V30 1191 C  59.3460 -19.7270 18.2650 0 CFG=2
M  V30 1192 C  59.5650 -21.1050 17.6670 0
M  V30 1193 O  60.3850 -21.8750 18.1800 0
M  V30 1194 C  58.1010 -19.6820 19.1600 0
M  V30 1195 C  57.5400 -18.3120 18.9660 0
M  V30 1196 C  57.8150 -17.9640 17.5370 0
M  V30 1197 N  58.8470 -21.4410 16.5910 0
M  V30 1198 C  58.9870 -22.7600 15.9840 0 CFG=2
M  V30 1199 C  60.3570 -22.9740 15.3540 0
M  V30 1200 O  60.7230 -24.1210 15.0760 0
M  V30 1201 C  57.8940 -22.9720 14.9350 0
M  V30 1202 O  57.8500 -21.8910 14.0200 0
M  V30 1203 N  61.1180 -21.9060 15.1210 0
M  V30 1204 C  62.4240 -22.0070 14.4820 0 CFG=2
M  V30 1205 C  63.5860 -21.8000 15.4460 0
M  V30 1206 O  64.7420 -21.8230 15.0120 0
M  V30 1207 C  62.5270 -21.0060 13.3270 0
M  V30 1208 C  61.6320 -21.3720 12.1620 0
M  V30 1209 O  61.3080 -22.5440 11.9570 0
M  V30 1210 N  61.2280 -20.3710 11.3880 0
M  V30 1211 N  63.3170 -21.5990 16.7320 0
M  V30 1212 C  64.3540 -21.5440 17.7550 0 CFG=2
M  V30 1213 C  64.3780 -22.9040 18.4370 0
M  V30 1214 O  63.4120 -23.2950 19.0980 0
M  V30 1215 C  64.1050 -20.4170 18.7650 0 CFG=2
M  V30 1216 C  63.8920 -19.0860 18.0420 0
M  V30 1217 C  65.2710 -20.3110 19.7360 0
M  V30 1218 C  63.6610 -17.9190 18.9740 0
M  V30 1219 N  65.4790 -23.6280 18.2750 0
M  V30 1220 C  65.6180 -24.9660 18.8270 0 CFG=2
M  V30 1221 C  66.4960 -24.9490 20.0740 0
M  V30 1222 O  67.3480 -24.0730 20.2500 0
M  V30 1223 C  66.1960 -25.9230 17.7850 0
M  V30 1224 C  65.1660 -26.6210 16.8890 0
M  V30 1225 C  64.0730 -25.6560 16.4690 0
M  V30 1226 C  65.8410 -27.2360 15.6680 0
M  V30 1227 N  66.2710 -25.9370 20.9430 0
M  V30 1228 C  66.9850 -26.0650 22.2060 0 CFG=2
M  V30 1229 C  67.2100 -27.5440 22.4870 0
M  V30 1230 O  66.5480 -28.4160 21.9190 0
M  V30 1231 C  66.2200 -25.4030 23.3740 0
M  V30 1232 C  65.9860 -23.9290 23.0840 0
M  V30 1233 C  64.8990 -26.1150 23.6140 0
M  V30 1234 N  68.1590 -27.8230 23.3800 0
M  V30 1235 C  68.5190 -29.1920 23.7210 0 CFG=2
M  V30 1236 C  68.8720 -29.2730 25.2010 0
M  V30 1237 O  69.0180 -28.2580 25.8880 0
M  V30 1238 C  69.6840 -29.7010 22.8600 0
M  V30 1239 C  70.9600 -28.9120 23.0780 0
M  V30 1240 O  70.9260 -27.7630 23.5150 0
M  V30 1241 N  72.0950 -29.5260 22.7670 0
M  V30 1242 N  69.0130 -30.5110 25.6870 0
M  V30 1243 C  69.2690 -30.7280 27.1100 0 CFG=2
M  V30 1244 C  70.6040 -30.1370 27.5420 0
M  V30 1245 O  70.7760 -29.7880 28.7140 0
M  V30 1246 C  69.2280 -32.2220 27.4310 0
M  V30 1247 O  70.3500 -32.8940 26.8830 0
M  V30 1248 N  71.5540 -30.0190 26.6210 0
M  V30 1249 C  72.8530 -29.4320 26.9450 0 CFG=2
M  V30 1250 C  72.7940 -27.9180 27.1010 0
M  V30 1251 O  73.8490 -27.2750 27.2020 0
M  V30 1252 C  73.8750 -29.8240 25.8770 0
M  V30 1253 C  74.3030 -31.2840 25.9600 0
M  V30 1254 C  74.6240 -31.8680 24.5950 0
M  V30 1255 N  75.7780 -31.2290 23.9700 0
M  V30 1256 C  76.2660 -31.5760 22.7830 0
M  V30 1257 N  77.3200 -30.9430 22.2850 0
M  V30 1258 N  75.7000 -32.5590 22.0930 0 CHG=1
M  V30 1259 N  71.5930 -27.3420 27.1250 0
M  V30 1260 C  71.4260 -25.9230 27.3590 0
M  V30 1261 C  71.6200 -25.0350 26.1530 0
M  V30 1262 O  71.6040 -23.8080 26.3020 0
M  V30 1263 N  71.7980 -25.6060 24.9660 0
M  V30 1264 C  72.0600 -24.8070 23.7780 0 CFG=2
M  V30 1265 C  70.7720 -24.2050 23.2290 0
M  V30 1266 O  69.6750 -24.7430 23.4150 0
M  V30 1267 C  72.7380 -25.6500 22.6970 0
M  V30 1268 C  73.8810 -26.5150 23.2000 0
M  V30 1269 C  74.6940 -27.1170 22.0710 0
M  V30 1270 O  75.1470 -26.3530 21.1920 0
M  V30 1271 O  74.8750 -28.3520 22.0530 0 CHG=-1
M  V30 1272 N  70.9180 -23.0710 22.5490 0
M  V30 1273 C  69.8230 -22.4120 21.8480 0 CFG=2
M  V30 1274 C  70.3270 -22.0620 20.4570 0
M  V30 1275 O  71.2460 -21.2470 20.3140 0
M  V30 1276 C  69.3360 -21.1520 22.5800 0 CFG=2
M  V30 1277 C  69.0910 -21.4540 24.0610 0
M  V30 1278 C  68.0670 -20.6150 21.9310 0
M  V30 1279 C  68.6970 -20.2380 24.8730 0
M  V30 1280 N  69.7330 -22.6760 19.4340 0
M  V30 1281 C  70.2190 -22.5480 18.0690 0 CFG=2
M  V30 1282 C  69.0950 -22.1030 17.1470 0
M  V30 1283 O  67.9180 -22.3810 17.3950 0
M  V30 1284 C  70.8100 -23.8720 17.5660 0
M  V30 1285 C  71.8770 -24.4500 18.4790 0
M  V30 1286 C  72.5550 -25.6550 17.8540 0
M  V30 1287 C  73.7290 -26.1170 18.7000 0
M  V30 1288 N  74.5210 -27.1790 18.0270 0 CHG=1
M  V30 1289 N  69.4720 -21.4070 16.0780 0
M  V30 1290 C  68.5250 -20.9980 15.0510 0 CFG=2
M  V30 1291 C  68.3750 -22.0960 14.0020 0
M  V30 1292 O  69.2430 -22.9570 13.8360 0
M  V30 1293 C  68.9670 -19.6920 14.3910 0
M  V30 1294 C  68.8100 -18.4260 15.2350 0
M  V30 1295 C  68.1330 -17.3300 14.4300 0
M  V30 1296 C  68.0290 -18.7190 16.5060 0
M  V30 1297 N  67.2540 -22.0530 13.2860 0
M  V30 1298 C  66.9220 -23.1120 12.3460 0 CFG=2
M  V30 1299 C  65.9230 -22.5820 11.3300 0
M  V30 1300 O  65.2780 -21.5510 11.5430 0
M  V30 1301 C  66.3650 -24.3390 13.0740 0
M  V30 1302 S  65.9780 -25.7430 12.0140 0
M  V30 1303 N  65.8070 -23.3060 10.2170 0
M  V30 1304 C  64.8530 -22.9840 9.1520 0 CFG=2
M  V30 1305 C  65.0450 -21.5630 8.6290 0
M  V30 1306 O  64.0810 -20.8800 8.2730 0
M  V30 1307 C  63.4060 -23.1950 9.6100 0
M  V30 1308 C  63.1220 -24.6300 10.0250 0
M  V30 1309 O  62.5630 -24.8340 11.1280 0
M  V30 1310 O  63.4680 -25.5540 9.2570 0 CHG=-1
M  V30 1311 N  66.2940 -21.1130 8.5670 0
M  V30 1312 C  66.5890 -19.7760 8.0730 0 CFG=2
M  V30 1313 C  66.8100 -19.7980 6.5680 0
M  V30 1314 O  67.3390 -20.7630 6.0160 0
M  V30 1315 C  67.8160 -19.1830 8.7730 0
M  V30 1316 C  69.0380 -20.0500 8.7010 0
M  V30 1317 C  69.3680 -20.8880 9.7520 0
M  V30 1318 C  69.8630 -20.0210 7.5890 0
M  V30 1319 C  70.4920 -21.6830 9.6950 0
M  V30 1320 C  70.9890 -20.8150 7.5240 0
M  V30 1321 C  71.3040 -21.6460 8.5800 0
M  V30 1322 N  66.4180 -18.7070 5.9150 0
M  V30 1323 C  66.4220 -18.6150 4.4670 0
M  V30 1324 C  67.7800 -18.6260 3.7990 0
M  V30 1325 O  68.5170 -17.6390 3.8650 0
M  V30 1326 N  68.1120 -19.7290 3.1320 0
M  V30 1327 C  69.3770 -19.8410 2.4190 0 CFG=2
M  V30 1328 C  69.2010 -20.1700 0.9410 0
M  V30 1329 O  70.1290 -19.9170 0.1530 0
M  V30 1330 C  70.3040 -20.8780 3.0870 0
M  V30 1331 C  70.0220 -22.2700 2.5390 0
M  V30 1332 C  71.7640 -20.4990 2.8810 0
M  V30 1333 N  68.0620 -20.7180 0.5250 0
M  V30 1334 C  67.8190 -21.0960 -0.8640 0 CFG=2
M  V30 1335 C  66.7460 -20.1810 -1.4400 0
M  V30 1336 O  65.5730 -20.2790 -1.0670 0
M  V30 1337 C  67.3990 -22.5600 -0.9640 0
M  V30 1338 O  66.9390 -22.8700 -2.2670 0
M  V30 1339 N  67.1490 -19.3010 -2.3570 0
M  V30 1340 C  66.1850 -18.3970 -2.9650 0
M  V30 1341 C  65.0540 -19.1320 -3.6580 0
M  V30 1342 O  63.8780 -18.8050 -3.4770 0
M  V30 1343 N  65.3950 -20.1410 -4.4620 0
M  V30 1344 C  64.3710 -20.8800 -5.1910 0 CFG=2
M  V30 1345 C  63.4050 -21.5750 -4.2400 0
M  V30 1346 O  62.2000 -21.6470 -4.5100 0
M  V30 1347 C  65.0250 -21.8910 -6.1310 0
M  V30 1348 C  64.6040 -21.7340 -7.5820 0
M  V30 1349 C  64.8980 -20.3500 -8.1180 0
M  V30 1350 O  64.0360 -19.8630 -9.0040 0
M  V30 1351 N  65.8840 -19.7200 -7.7320 0
M  V30 1352 N  63.9150 -22.0980 -3.1220 0
M  V30 1353 C  63.0390 -22.7280 -2.1400 0 CFG=2
M  V30 1354 C  62.0150 -21.7400 -1.5960 0
M  V30 1355 O  60.8740 -22.1210 -1.3110 0
M  V30 1356 C  63.8700 -23.3230 -1.0030 0
M  V30 1357 C  63.1170 -24.1040 0.0760 0
M  V30 1358 C  62.3840 -25.2910 -0.5240 0
M  V30 1359 C  64.0720 -24.5580 1.1670 0
M  V30 1360 N  62.4020 -20.4710 -1.4470 0
M  V30 1361 C  61.4650 -19.4570 -0.9710 0 CFG=2
M  V30 1362 C  60.3850 -19.1980 -2.0130 0
M  V30 1363 O  59.1980 -19.0910 -1.6830 0
M  V30 1364 C  62.2200 -18.1650 -0.6040 0 CFG=2
M  V30 1365 C  63.2230 -18.4350 0.5190 0
M  V30 1366 C  61.2410 -17.0700 -0.2060 0
M  V30 1367 C  64.1150 -17.2580 0.8380 0
M  V30 1368 N  60.7730 -19.0940 -3.2850 0
M  V30 1369 C  59.7970 -18.8620 -4.3440 0 CFG=2
M  V30 1370 C  58.7850 -19.9980 -4.4150 0
M  V30 1371 O  57.5730 -19.7630 -4.4720 0
M  V30 1372 C  60.5100 -18.6840 -5.6850 0
M  V30 1373 C  60.9300 -17.2480 -5.9360 0
M  V30 1374 O  60.0650 -16.3510 -5.8350 0
M  V30 1375 O  62.1230 -17.0150 -6.2290 0 CHG=-1
M  V30 1376 N  59.2680 -21.2440 -4.4150 0
M  V30 1377 C  58.3560 -22.3840 -4.4420 0 CFG=2
M  V30 1378 C  57.4380 -22.3790 -3.2270 0
M  V30 1379 O  56.2530 -22.7150 -3.3320 0
M  V30 1380 C  59.1470 -23.6870 -4.5170 0
M  V30 1381 N  57.9680 -22.0010 -2.0620 0
M  V30 1382 C  57.1440 -21.9370 -0.8600 0 CFG=2
M  V30 1383 C  56.0510 -20.8880 -0.9870 0
M  V30 1384 O  54.9910 -21.0170 -0.3590 0
M  V30 1385 C  58.0190 -21.6350 0.3580 0
M  V30 1386 C  57.6940 -22.4620 1.5860 0
M  V30 1387 S  58.4050 -24.1080 1.4770 0
M  V30 1388 C  60.1250 -23.7050 1.1910 0
M  V30 1389 N  56.2880 -19.8450 -1.7910 0
M  V30 1390 C  55.3440 -18.7350 -1.8700 0 CFG=2
M  V30 1391 C  53.9600 -19.2000 -2.3110 0
M  V30 1392 O  52.9610 -18.5410 -1.9970 0
M  V30 1393 C  55.8720 -17.6600 -2.8200 0
M  V30 1394 N  53.8750 -20.3170 -3.0320 0
M  V30 1395 C  52.5850 -20.8890 -3.4150 0 CFG=2
M  V30 1396 C  52.1950 -21.9360 -2.3760 0
M  V30 1397 O  52.3550 -23.1450 -2.5640 0
M  V30 1398 C  52.6460 -21.4810 -4.8150 0
M  V30 1399 C  51.3710 -22.2120 -5.1870 0
M  V30 1400 O  51.4850 -23.1920 -6.0750 0
M  V30 1401 N  50.2950 -21.9040 -4.6720 0
M  V30 1402 N  51.6760 -21.4490 -1.2530 0
M  V30 1403 C  51.2230 -22.3100 -0.1720 0 CFG=2
M  V30 1404 C  49.8900 -21.7930 0.3430 0
M  V30 1405 O  49.4860 -20.6610 0.0630 0
M  V30 1406 C  52.2440 -22.3810 0.9730 0
M  V30 1407 N  49.2020 -22.6450 1.0980 0
M  V30 1408 C  47.9420 -22.2410 1.6990 0 CFG=2
M  V30 1409 C  48.1900 -21.1910 2.7750 0
M  V30 1410 O  49.2600 -21.1370 3.3890 0
M  V30 1411 C  47.2160 -23.4470 2.2990 0
M  V30 1412 C  47.4730 -24.7350 1.5710 0
M  V30 1413 C  48.1430 -25.7730 2.1950 0
M  V30 1414 C  47.0470 -24.9070 0.2640 0
M  V30 1415 C  48.3830 -26.9620 1.5330 0
M  V30 1416 C  47.2850 -26.0930 -0.4050 0
M  V30 1417 C  47.9560 -27.1220 0.2310 0
M  V30 1418 N  47.1840 -20.3450 2.9960 0
M  V30 1419 C  47.3110 -19.2950 3.9950 0 CFG=2
M  V30 1420 C  47.4720 -19.9110 5.3780 0
M  V30 1421 O  46.8370 -20.9190 5.7120 0
M  V30 1422 C  46.0950 -18.3570 3.9440 0
M  V30 1423 C  44.8050 -19.1610 3.9070 0
M  V30 1424 C  46.1030 -17.4140 5.1410 0
M  V30 1425 N  48.3350 -19.3050 6.1880 0
M  V30 1426 C  48.4990 -19.7080 7.5670 0
M  V30 1427 C  47.4320 -19.0950 8.4570 0
M  V30 1428 O  46.4160 -18.5640 8.0020 0
M  V30 1429 N  47.6810 -19.1740 9.7650 0
M  V30 1430 C  46.7740 -18.6090 10.7520 0 CFG=2
M  V30 1431 C  47.3230 -17.3760 11.4530 0
M  V30 1432 O  46.5330 -16.5720 11.9590 0
M  V30 1433 C  46.4090 -19.6600 11.8080 0 CFG=2
M  V30 1434 O  47.6030 -20.2960 12.2860 0
M  V30 1435 C  45.4830 -20.7110 11.2150 0
M  V30 1436 N  48.6430 -17.2060 11.4950 0
M  V30 1437 C  49.2480 -16.0250 12.0900 0 CFG=2
M  V30 1438 C  50.5790 -15.7630 11.4040 0
M  V30 1439 O  51.1760 -16.6590 10.8000 0
M  V30 1440 C  49.4290 -16.1830 13.6050 0
M  V30 1441 C  50.2250 -17.4070 14.0320 0
M  V30 1442 C  49.6630 -17.9670 15.3270 0
M  V30 1443 N  50.6700 -18.6350 16.1440 0
M  V30 1444 C  50.4500 -19.0570 17.3860 0
M  V30 1445 N  49.2600 -18.8770 17.9470 0
M  V30 1446 N  51.4170 -19.6550 18.0710 0 CHG=1
M  V30 1447 N  51.0380 -14.5170 11.4990 0
M  V30 1448 C  52.2430 -14.0760 10.8080 0 CFG=2
M  V30 1449 C  53.1270 -13.2870 11.7600 0
M  V30 1450 O  52.6400 -12.4230 12.4950 0
M  V30 1451 C  51.8940 -13.2200 9.5860 0
M  V30 1452 O  53.0610 -12.6760 8.9930 0
M  V30 1453 N  54.4230 -13.5920 11.7460 0
M  V30 1454 C  55.4300 -12.7990 12.4370 0 CFG=2
M  V30 1455 C  56.1430 -11.8400 11.4910 0
M  V30 1456 O  57.2000 -11.3020 11.8390 0
M  V30 1457 C  56.4390 -13.7170 13.1300 0
M  V30 1458 C  55.8050 -14.6880 14.1030 0
M  V30 1459 C  55.3460 -15.9260 13.6780 0
M  V30 1460 C  55.6590 -14.3620 15.4440 0
M  V30 1461 C  54.7610 -16.8120 14.5620 0
M  V30 1462 C  55.0770 -15.2430 16.3350 0
M  V30 1463 C  54.6290 -16.4660 15.8890 0
M  V30 1464 O  54.0480 -17.3470 16.7730 0
M  V30 1465 N  55.5800 -11.6230 10.3040 0
M  V30 1466 C  56.2070 -10.7710 9.3090 0 CFG=2
M  V30 1467 C  56.1960 -9.3160 9.7640 0
M  V30 1468 O  55.2100 -8.8270 10.3230 0
M  V30 1469 C  55.4810 -10.9060 7.9720 0
M  V30 1470 C  56.3890 -10.8650 6.7570 0
M  V30 1471 S  57.5190 -12.2690 6.6990 0
M  V30 1472 C  56.3660 -13.6320 6.8610 0
M  V30 1473 N  57.3070 -8.6220 9.5190 0
M  V30 1474 C  57.3980 -7.2150 9.8570 0 CFG=2
M  V30 1475 C  56.5450 -6.3860 8.9030 0
M  V30 1476 O  56.2410 -6.8170 7.7880 0
M  V30 1477 C  58.8500 -6.7510 9.8130 0
M  V30 1478 O  59.4550 -7.0830 8.5770 0
M  V30 1479 N  56.1460 -5.1820 9.3210 0
M  V30 1480 C  55.2410 -4.3840 8.4740 0 CFG=2
M  V30 1481 C  55.8540 -3.9760 7.1470 0
M  V30 1482 O  55.1420 -3.9150 6.1360 0
M  V30 1483 C  54.9220 -3.1710 9.3570 0
M  V30 1484 C  56.0730 -3.0740 10.3010 0
M  V30 1485 C  56.4910 -4.4890 10.5730 0
M  V30 1486 N  57.1580 -3.6880 7.1130 0
M  V30 1487 C  57.7770 -3.3070 5.8490 0 CFG=2
M  V30 1488 C  57.8220 -4.4760 4.8740 0
M  V30 1489 O  57.7340 -4.2690 3.6590 0
M  V30 1490 C  59.1860 -2.7520 6.0820 0
M  V30 1491 C  60.2160 -3.7850 6.5080 0
M  V30 1492 C  60.2330 -4.0130 8.0040 0
M  V30 1493 O  59.3260 -3.5080 8.6960 0
M  V30 1494 O  61.1600 -4.6970 8.4910 0 CHG=-1
M  V30 1495 N  57.9560 -5.7040 5.3810 0
M  V30 1496 C  57.9110 -6.8660 4.5020 0 CFG=2
M  V30 1497 C  56.5000 -7.1180 3.9860 0
M  V30 1498 O  56.3300 -7.5970 2.8590 0
M  V30 1499 C  58.4400 -8.1000 5.2300 0
M  V30 1500 C  59.8750 -7.9680 5.7180 0
M  V30 1501 C  60.3650 -9.2610 6.3600 0
M  V30 1502 N  60.4970 -10.3400 5.3840 0
M  V30 1503 C  60.7900 -11.5980 5.6950 0
M  V30 1504 N  60.9770 -11.9420 6.9610 0
M  V30 1505 N  60.8920 -12.5120 4.7400 0 CHG=1
M  V30 1506 N  55.4820 -6.8040 4.7910 0
M  V30 1507 C  54.1050 -6.9730 4.3350 0 CFG=2
M  V30 1508 C  53.7710 -5.9840 3.2260 0
M  V30 1509 O  53.0140 -6.3110 2.3040 0
M  V30 1510 C  53.1410 -6.8110 5.5110 0
M  V30 1511 C  53.2590 -7.8260 6.6500 0
M  V30 1512 C  52.3340 -7.4540 7.7980 0
M  V30 1513 C  52.9560 -9.2290 6.1550 0
M  V30 1514 N  54.3250 -4.7750 3.2950 0
M  V30 1515 C  54.0900 -3.7570 2.2800 0 CFG=2
M  V30 1516 C  55.2110 -3.6560 1.2550 0
M  V30 1517 O  55.0030 -3.0570 0.1940 0
M  V30 1518 C  53.8960 -2.3840 2.9410 0
M  V30 1519 C  52.5940 -2.2380 3.7110 0
M  V30 1520 C  52.2660 -0.7920 4.0140 0
M  V30 1521 O  53.0790 -0.0660 4.5830 0
M  V30 1522 N  51.0700 -0.3620 3.6230 0
M  V30 1523 N  56.3820 -4.2170 1.5400 0
M  V30 1524 C  57.5030 -4.1190 0.6270 0
M  V30 1525 C  58.4130 -5.3270 0.6560 0
M  V30 1526 O  57.9520 -6.4640 0.5040 0
M  V30 1527 N  59.7090 -5.0970 0.8540 0
M  V30 1528 C  60.7020 -6.1580 0.8510 0 CFG=2
M  V30 1529 C  61.5680 -6.0580 2.1020 0
M  V30 1530 O  61.4790 -5.1000 2.8770 0
M  V30 1531 C  61.5810 -6.1010 -0.4060 0 CFG=2
M  V30 1532 O  62.1050 -4.7770 -0.5660 0
M  V30 1533 C  60.7720 -6.4770 -1.6380 0
M  V30 1534 N  62.4090 -7.0740 2.2870 0
M  V30 1535 C  63.2950 -7.1370 3.4420 0 CFG=2
M  V30 1536 C  64.0940 -5.8460 3.5790 0
M  V30 1537 O  64.5630 -5.2790 2.5910 0
M  V30 1538 C  64.2420 -8.3330 3.2990 0
M  V30 1539 C  64.7760 -8.8480 4.6000 0
M  V30 1540 N  63.9760 -9.4500 5.5480 0
M  V30 1541 C  66.0330 -8.8660 5.1030 0
M  V30 1542 C  64.7150 -9.8110 6.5820 0
M  V30 1543 N  65.9680 -9.4680 6.3380 0
M  V30 1544 N  64.2360 -5.3770 4.8180 0
M  V30 1545 C  65.0270 -4.1850 5.0980 0 CFG=2
M  V30 1546 C  66.1930 -4.5370 6.0140 0
M  V30 1547 O  66.2740 -4.0540 7.1490 0
M  V30 1548 C  64.1540 -3.0910 5.7230 0
M  V30 1549 C  64.8050 -1.7250 5.7620 0
M  V30 1550 C  64.7100 -0.8590 4.6800 0
M  V30 1551 C  65.5090 -1.3000 6.8800 0
M  V30 1552 C  65.3020 0.3910 4.7110 0
M  V30 1553 C  66.1050 -0.0530 6.9200 0
M  V30 1554 C  65.9980 0.7880 5.8330 0
M  V30 1555 O  66.5900 2.0290 5.8690 0
M  V30 1556 N  67.0970 -5.3870 5.5290 0
M  V30 1557 C  68.2500 -5.8290 6.3040 0 CFG=2
M  V30 1558 C  67.8130 -6.5970 7.5480 0
M  V30 1559 O  66.6430 -6.9740 7.6760 0
M  V30 1560 C  69.1300 -4.6410 6.6980 0
M  V30 1561 O  68.6600 -4.0280 7.8860 0
M  V30 1562 N  68.7490 -6.8230 8.4730 0
M  V30 1563 C  68.4910 -7.6790 9.6250 0 CFG=2
M  V30 1564 C  67.3940 -7.1250 10.5230 0
M  V30 1565 O  66.8550 -7.8570 11.3610 0
M  V30 1566 C  69.7920 -7.8910 10.4230 0
M  V30 1567 C  70.1270 -6.6450 11.2340 0
M  V30 1568 C  69.6750 -9.1100 11.3210 0
M  V30 1569 N  67.0480 -5.8440 10.3750 0
M  V30 1570 C  66.0350 -5.2480 11.2420 0 CFG=2
M  V30 1571 C  64.7050 -5.9830 11.1230 0
M  V30 1572 O  63.9990 -6.1710 12.1210 0
M  V30 1573 C  65.8640 -3.7680 10.9020 0
M  V30 1574 C  67.1280 -3.1050 10.3800 0
M  V30 1575 C  67.6640 -2.0410 11.3150 0
M  V30 1576 O  67.0140 -1.6730 12.2920 0
M  V30 1577 N  68.8570 -1.5390 11.0150 0
M  V30 1578 N  64.3470 -6.4070 9.9080 0
M  V30 1579 C  63.0980 -7.1350 9.7140 0 CFG=2
M  V30 1580 C  63.0770 -8.4290 10.5160 0
M  V30 1581 O  62.0150 -8.8460 10.9960 0
M  V30 1582 C  62.8910 -7.4270 8.2300 0
M  V30 1583 O  63.4350 -6.3910 7.4340 0
M  V30 1584 N  64.2320 -9.0840 10.6630 0
M  V30 1585 C  64.3110 -10.2540 11.5300 0 CFG=2
M  V30 1586 C  64.2020 -9.8650 12.9960 0
M  V30 1587 O  63.6580 -10.6300 13.8010 0
M  V30 1588 C  65.6170 -11.0080 11.2790 0
M  V30 1589 C  65.6700 -11.6420 9.9050 0
M  V30 1590 O  64.6480 -12.2180 9.4740 0
M  V30 1591 O  66.7330 -11.5630 9.2550 0 CHG=-1
M  V30 1592 N  64.7080 -8.6850 13.3630 0
M  V30 1593 C  64.6410 -8.2460 14.7540 0 CFG=2
M  V30 1594 C  63.1930 -8.0420 15.1780 0
M  V30 1595 O  62.8180 -8.3420 16.3190 0
M  V30 1596 C  65.4820 -6.9720 14.9530 0 CFG=2
M  V30 1597 C  66.9740 -7.3090 14.8850 0
M  V30 1598 C  65.1290 -6.2980 16.2690 0
M  V30 1599 C  67.8850 -6.1100 15.0220 0
M  V30 1600 N  62.3560 -7.5300 14.2710 0
M  V30 1601 C  60.9280 -7.4290 14.5610 0 CFG=2
M  V30 1602 C  60.3610 -8.7860 14.9530 0
M  V30 1603 O  59.7260 -8.9290 16.0040 0
M  V30 1604 C  60.1830 -6.8590 13.3520 0
M  V30 1605 C  58.6830 -7.0160 13.4220 0
M  V30 1606 C  57.9600 -8.1480 13.1600 0
M  V30 1607 C  57.7280 -6.0030 13.7570 0
M  V30 1608 N  56.6170 -7.9040 13.3230 0
M  V30 1609 C  56.4470 -6.5940 13.6870 0
M  V30 1610 C  57.8270 -4.6550 14.1130 0
M  V30 1611 C  55.2820 -5.8840 13.9600 0
M  V30 1612 C  56.6640 -3.9500 14.3840 0
M  V30 1613 C  55.4100 -4.5670 14.3050 0
M  V30 1614 N  60.5830 -9.8000 14.1110 0
M  V30 1615 C  60.0450 -11.1260 14.3940 0 CFG=2
M  V30 1616 C  60.5720 -11.6650 15.7190 0
M  V30 1617 O  59.8210 -12.2690 16.4960 0
M  V30 1618 C  60.3750 -12.0800 13.2490 0
M  V30 1619 O  59.7910 -11.6350 12.0380 0
M  V30 1620 N  61.8610 -11.4580 15.9990 0
M  V30 1621 C  62.4010 -11.8560 17.2950 0 CFG=2
M  V30 1622 C  61.6290 -11.1940 18.4270 0
M  V30 1623 O  61.2540 -11.8480 19.4070 0
M  V30 1624 C  63.8870 -11.5090 17.3870 0
M  V30 1625 C  64.5090 -11.8690 18.7300 0
M  V30 1626 S  66.1670 -11.2030 18.9730 0
M  V30 1627 C  65.8330 -9.4420 18.9420 0
M  V30 1628 N  61.3790 -9.8900 18.3070 0
M  V30 1629 C  60.6240 -9.1960 19.3360 0
M  V30 1630 C  59.2260 -9.7580 19.5040 0
M  V30 1631 O  58.7810 -10.0320 20.6230 0
M  V30 1632 N  58.5120 -9.9390 18.3910 0
M  V30 1633 C  57.1610 -10.4810 18.4700 0 CFG=2
M  V30 1634 C  57.1610 -11.8710 19.0930 0
M  V30 1635 O  56.2690 -12.2090 19.8830 0
M  V30 1636 C  56.5260 -10.5140 17.0810 0
M  V30 1637 C  55.0190 -10.7720 17.0500 0
M  V30 1638 C  54.2980 -9.7390 17.8920 0
M  V30 1639 C  54.4980 -10.7570 15.6210 0
M  V30 1640 N  58.1570 -12.6920 18.7510 0
M  V30 1641 C  58.2570 -14.0180 19.3550 0 CFG=2
M  V30 1642 C  58.5140 -13.9200 20.8530 0
M  V30 1643 O  58.0220 -14.7470 21.6310 0
M  V30 1644 C  59.3630 -14.8230 18.6740 0
M  V30 1645 O  59.1780 -14.8460 17.2700 0
M  V30 1646 N  59.2810 -12.9120 21.2790 0
M  V30 1647 C  59.5440 -12.7330 22.7020 0 CFG=2
M  V30 1648 C  58.2760 -12.3500 23.4520 0
M  V30 1649 O  58.0000 -12.8870 24.5310 0
M  V30 1650 C  60.6320 -11.6790 22.9000 0
M  V30 1651 C  62.0460 -12.0930 22.4910 0
M  V30 1652 C  63.0060 -10.9200 22.6150 0
M  V30 1653 C  62.5200 -13.2660 23.3350 0
M  V30 1654 N  57.4910 -11.4260 22.8980 0
M  V30 1655 C  56.2410 -11.0320 23.5450 0 CFG=2
M  V30 1656 C  55.3200 -12.2370 23.6940 0
M  V30 1657 O  54.7250 -12.4600 24.7550 0
M  V30 1658 C  55.5610 -9.8970 22.7570 0
M  V30 1659 C  54.2100 -9.5610 23.3690 0
M  V30 1660 C  56.4560 -8.6670 22.7200 0
M  V30 1661 N  55.1890 -13.0330 22.6290 0
M  V30 1662 C  54.3390 -14.2160 22.6910 0 CFG=2
M  V30 1663 C  54.8280 -15.1850 23.7600 0
M  V30 1664 O  54.0470 -15.6450 24.5990 0
M  V30 1665 C  54.2950 -14.9040 21.3280 0
M  V30 1666 C  53.5130 -16.2090 21.3260 0
M  V30 1667 C  53.6660 -16.9830 20.0320 0
M  V30 1668 O  53.1980 -18.1410 19.9740 0
M  V30 1669 O  54.2540 -16.4380 19.0750 0 CHG=-1
M  V30 1670 N  56.1230 -15.5080 23.7440 0
M  V30 1671 C  56.6590 -16.4590 24.7110 0 CFG=2
M  V30 1672 C  56.6070 -15.9120 26.1350 0
M  V30 1673 O  56.4790 -16.6880 27.0900 0
M  V30 1674 C  58.0930 -16.8350 24.3370 0
M  V30 1675 C  58.2080 -17.6320 23.0530 0
M  V30 1676 S  59.9090 -18.0950 22.6730 0
M  V30 1677 C  60.6480 -16.4860 22.4160 0
M  V30 1678 N  56.7060 -14.5920 26.2990 0
M  V30 1679 C  56.6700 -14.0160 27.6380 0 CFG=2
M  V30 1680 C  55.2750 -14.1090 28.2440 0
M  V30 1681 O  55.1270 -14.4510 29.4250 0
M  V30 1682 C  57.1430 -12.5630 27.5970 0
M  V30 1683 N  54.2410 -13.8160 27.4590 0
M  V30 1684 C  52.8660 -13.8430 27.9440 0 CFG=2
M  V30 1685 C  52.1680 -15.1680 27.6720 0
M  V30 1686 O  51.0930 -15.4120 28.2460 0
M  V30 1687 C  52.0370 -12.6910 27.3410 0
M  V30 1688 C  52.6590 -11.3510 27.6910 0
M  V30 1689 C  51.9350 -12.8620 25.8330 0
M  V30 1690 N  52.7250 -16.0160 26.8200 0
M  V30 1691 C  52.0930 -17.2810 26.5040 0
M  V30 1692 C  50.9160 -17.1780 25.5620 0
M  V30 1693 O  49.9830 -17.9810 25.6560 0
M  V30 1694 N  50.9350 -16.2120 24.6450 0
M  V30 1695 C  49.8090 -15.9770 23.7510 0 CFG=2
M  V30 1696 C  50.2770 -15.1090 22.5960 0
M  V30 1697 O  50.9810 -14.1180 22.8130 0
M  V30 1698 C  48.6540 -15.3010 24.4970 0
M  V30 1699 C  47.5270 -14.8010 23.6080 0
M  V30 1700 C  46.5960 -13.8840 24.3910 0
M  V30 1701 N  45.4180 -13.4890 23.6230 0
M  V30 1702 C  45.3690 -12.4330 22.8160 0
M  V30 1703 N  46.4360 -11.6600 22.6640 0
M  V30 1704 N  44.2520 -12.1510 22.1600 0 CHG=1
M  V30 1705 N  49.8950 -15.4810 21.3820 0
M  V30 1706 C  50.2120 -14.6720 20.2130 0 CFG=2
M  V30 1707 C  49.6710 -13.2620 20.4190 0
M  V30 1708 O  48.4590 -13.0970 20.6300 0
M  V30 1709 C  49.6260 -15.3040 18.9550 0
M  V30 1710 C  50.0080 -14.6010 17.6750 0
M  V30 1711 C  51.2820 -14.7270 17.1430 0
M  V30 1712 C  49.0860 -13.8200 16.9890 0
M  V30 1713 C  51.6320 -14.0860 15.9680 0
M  V30 1714 C  49.4260 -13.1770 15.8130 0
M  V30 1715 C  50.7000 -13.3130 15.3080 0
M  V30 1716 O  51.0390 -12.6740 14.1400 0
M  V30 1717 N  50.5120 -12.2270 20.3670 0
M  V30 1718 C  50.1050 -10.8940 20.8270 0 CFG=2
M  V30 1719 C  49.3330 -10.0630 19.8130 0
M  V30 1720 O  49.1430 -8.8670 20.0500 0
M  V30 1721 C  51.4540 -10.2340 21.1470 0
M  V30 1722 C  52.3870 -10.8460 20.1650 0
M  V30 1723 C  51.9280 -12.2670 19.9630 0
M  V30 1724 N  48.8810 -10.6380 18.7030 0
M  V30 1725 C  48.1010 -9.8830 17.7220 0 CFG=2
M  V30 1726 C  46.7180 -10.5150 17.5990 0
M  V30 1727 O  46.5930 -11.6300 17.0680 0
M  V30 1728 C  48.8110 -9.8350 16.3590 0 CFG=2
M  V30 1729 C  50.2290 -9.2800 16.5050 0
M  V30 1730 C  48.0170 -8.9850 15.3800 0
M  V30 1731 C  50.2780 -7.7990 16.8040 0
M  V30 1732 N  45.6510 -9.8510 18.0700 0
M  V30 1733 C  45.7110 -8.5450 18.7330 0 CFG=2
M  V30 1734 C  46.1080 -8.6390 20.2060 0
M  V30 1735 O  46.1360 -9.7400 20.7600 0
M  V30 1736 C  44.2810 -8.0260 18.5920 0
M  V30 1737 C  43.4510 -9.2610 18.5960 0
M  V30 1738 C  44.2640 -10.3100 17.8850 0
M  V30 1739 N  46.4080 -7.5010 20.8260 0
M  V30 1740 C  46.8050 -7.5030 22.2390 0 CFG=2
M  V30 1741 C  45.7040 -8.0770 23.1140 0
M  V30 1742 O  44.5200 -8.0390 22.7470 0
M  V30 1743 C  47.0410 -6.0160 22.5400 0
M  V30 1744 C  47.3280 -5.4020 21.2120 0
M  V30 1745 C  46.4750 -6.1550 20.2340 0
M  V30 1746 N  46.0540 -8.6100 24.2840 0
M  V30 1747 C  45.0520 -9.2580 25.1380 0 CFG=2
M  V30 1748 C  43.9920 -8.2760 25.6160 0
M  V30 1749 O  44.1320 -7.0540 25.5250 0
M  V30 1750 C  45.8780 -9.8030 26.3090 0
M  V30 1751 C  47.2830 -9.8700 25.7950 0
M  V30 1752 C  47.4130 -8.7260 24.8390 0
M  V30 1753 N  42.9090 -8.8420 26.1420 0
M  V30 1754 C  41.8160 -8.0530 26.6850 0 CFG=2
M  V30 1755 C  42.2290 -7.4180 28.0150 0
M  V30 1756 O  43.2620 -7.7510 28.6040 0
M  V30 1757 C  40.5720 -8.9260 26.8630 0
M  V30 1758 C  39.3510 -8.1320 27.2880 0
M  V30 1759 O  38.8490 -7.3290 26.4750 0
M  V30 1760 O  38.8940 -8.3140 28.4370 0 CHG=-1
M  V30 1761 N  41.4020 -6.4820 28.4870 0
M  V30 1762 C  41.6880 -5.8040 29.7480 0 CFG=2
M  V30 1763 C  41.7730 -6.7970 30.9000 0
M  V30 1764 O  42.7270 -6.7740 31.6860 0
M  V30 1765 C  40.6230 -4.7430 30.0250 0
M  V30 1766 N  40.7790 -7.6770 31.0230 0
M  V30 1767 C  40.7780 -8.6710 32.0870 0 CFG=2
M  V30 1768 C  41.3950 -9.9970 31.6680 0
M  V30 1769 O  41.6140 -10.8580 32.5300 0
M  V30 1770 C  39.3540 -8.9060 32.6020 0
M  V30 1771 C  39.0200 -8.0780 33.8330 0
M  V30 1772 C  40.0520 -8.3120 34.9300 0
M  V30 1773 C  39.8330 -7.4010 36.1270 0
M  V30 1774 N  40.8940 -7.5810 37.1580 0 CHG=1
M  V30 1775 N  41.6680 -10.1980 30.3770 0
M  V30 1776 C  42.4890 -11.3330 29.9830 0 CFG=2
M  V30 1777 C  43.9300 -11.1510 30.4280 0
M  V30 1778 O  44.6460 -12.1420 30.6120 0
M  V30 1779 C  42.4400 -11.5270 28.4610 0
M  V30 1780 C  41.1210 -12.0660 27.9200 0
M  V30 1781 C  41.1840 -12.3350 26.4240 0
M  V30 1782 O  42.2180 -12.0060 25.8070 0
M  V30 1783 O  40.2050 -12.8760 25.8660 0 CHG=-1
M  V30 1784 N  44.3540 -9.9040 30.6190 0
M  V30 1785 C  45.7300 -9.6320 31.0060 0 CFG=2
M  V30 1786 C  45.9130 -9.7870 32.5100 0
M  V30 1787 O  46.8850 -10.4100 32.9560 0
M  V30 1788 C  46.1190 -8.2250 30.5440 0
M  V30 1789 C  47.5930 -7.9990 30.2170 0
M  V30 1790 C  48.0840 -9.0450 29.2310 0
M  V30 1791 C  47.8060 -6.5980 29.6640 0
M  V30 1792 N  44.9860 -9.2500 33.3020 0
M  V30 1793 C  44.9950 -9.5130 34.7340 0 CFG=2
M  V30 1794 C  44.7560 -10.9850 35.0460 0
M  V30 1795 O  44.9060 -11.3880 36.2060 0
M  V30 1796 C  43.9440 -8.6490 35.4330 0
M  V30 1797 C  44.1290 -8.5470 36.9370 0
M  V30 1798 C  45.3160 -7.6840 37.3210 0
M  V30 1799 O  45.8180 -6.9380 36.4530 0
M  V30 1800 O  45.7440 -7.7510 38.4920 0 CHG=-1
M  V30 1801 N  44.3900 -11.7870 34.0460 0
M  V30 1802 C  44.1930 -13.2180 34.1920 0 CFG=2
M  V30 1803 C  45.4850 -14.0130 33.9730 0
M  V30 1804 O  45.4240 -15.1870 33.5980 0
M  V30 1805 C  43.1120 -13.7020 33.2180 0
M  V30 1806 C  42.2990 -14.9280 33.6300 0
M  V30 1807 C  41.1270 -14.5190 34.5110 0
M  V30 1808 C  41.8230 -15.6920 32.4060 0
M  V30 1809 N  46.6370 -13.3880 34.1940 0
M  V30 1810 C  47.9140 -14.0800 34.0590 0 CFG=2
M  V30 1811 C  48.2450 -14.8600 35.3270 0
M  V30 1812 O  48.3290 -14.2870 36.4140 0
M  V30 1813 C  49.0390 -13.0880 33.7460 0
M  V30 1814 C  49.0790 -12.6160 32.3010 0
M  V30 1815 S  50.5120 -11.5760 31.9600 0
M  V30 1816 C  51.8440 -12.6450 32.5020 0
M  V30 1817 N  39.3620 -15.2760 17.4320 0
M  V30 1818 C  39.8260 -15.8900 16.1830 0 CFG=2
M  V30 1819 C  39.9270 -14.8780 15.0460 0
M  V30 1820 O  39.0990 -14.8970 14.1350 0
M  V30 1821 C  38.7450 -16.9340 15.8910 0
M  V30 1822 C  37.5120 -16.3480 16.4880 0
M  V30 1823 C  37.9600 -15.6180 17.7280 0
M  V30 1824 N  40.9370 -14.0120 15.0990 0
M  V30 1825 C  41.0490 -12.9370 14.1240 0 CFG=2
M  V30 1826 C  41.5070 -13.4720 12.7720 0
M  V30 1827 O  42.3720 -14.3500 12.6900 0
M  V30 1828 C  42.0170 -11.8680 14.6230 0
M  V30 1829 C  41.8820 -10.5360 13.9040 0
M  V30 1830 S  42.8230 -9.2060 14.6830 0
M  V30 1831 C  42.1470 -7.7780 13.8390 0
M  V30 1832 N  40.9210 -12.9330 11.7050 0
M  V30 1833 C  41.2500 -13.3720 10.3570 0 CFG=2
M  V30 1834 C  42.6950 -13.0310 10.0120 0
M  V30 1835 O  43.2630 -12.0520 10.5060 0
M  V30 1836 C  40.3040 -12.7300 9.3410 0
M  V30 1837 N  43.2880 -13.8520 9.1430 0
M  V30 1838 C  44.6900 -13.6650 8.7840 0 CFG=2
M  V30 1839 C  44.9080 -12.2980 8.1520 0
M  V30 1840 O  45.9010 -11.6180 8.4370 0
M  V30 1841 C  45.1630 -14.7970 7.8530 0 CFG=2
M  V30 1842 C  46.6230 -14.5830 7.4560 0
M  V30 1843 C  44.2760 -14.8790 6.6200 0
M  V30 1844 C  47.5630 -14.4610 8.6350 0
M  V30 1845 N  43.9900 -11.8730 7.2820 0
M  V30 1846 C  44.1350 -10.5640 6.6540 0 CFG=2
M  V30 1847 C  44.0290 -9.4440 7.6820 0
M  V30 1848 O  44.7440 -8.4370 7.5860 0
M  V30 1849 C  43.0880 -10.3820 5.5550 0
M  V30 1850 C  43.0830 -9.0060 4.9490 0
M  V30 1851 C  43.9940 -8.6640 3.9650 0
M  V30 1852 C  42.1680 -8.0540 5.3650 0
M  V30 1853 C  43.9920 -7.3980 3.4060 0
M  V30 1854 C  42.1630 -6.7890 4.8110 0
M  V30 1855 C  43.0770 -6.4610 3.8310 0
M  V30 1856 N  43.1450 -9.5980 8.6700 0
M  V30 1857 C  43.0220 -8.5760 9.7020 0 CFG=2
M  V30 1858 C  44.2590 -8.5230 10.5880 0
M  V30 1859 O  44.6070 -7.4520 11.0970 0
M  V30 1860 C  41.7670 -8.8200 10.5380 0
M  V30 1861 C  40.4830 -8.8470 9.7240 0
M  V30 1862 C  39.2490 -8.5830 10.5650 0
M  V30 1863 O  38.2450 -8.0870 10.0090 0
M  V30 1864 O  39.2850 -8.8630 11.7810 0 CHG=-1
M  V30 1865 N  44.9310 -9.6600 10.7830 0
M  V30 1866 C  46.2060 -9.6500 11.4960 0 CFG=2
M  V30 1867 C  47.2550 -8.8640 10.7170 0
M  V30 1868 O  47.9160 -7.9740 11.2660 0
M  V30 1869 C  46.6880 -11.0780 11.7450 0
M  V30 1870 C  45.8910 -11.9560 12.7060 0
M  V30 1871 C  46.5450 -13.3220 12.8310 0
M  V30 1872 C  45.7700 -11.2920 14.0660 0
M  V30 1873 N  47.4200 -9.1850 9.4310 0
M  V30 1874 C  48.3900 -8.4690 8.6090 0 CFG=2
M  V30 1875 C  48.0630 -6.9840 8.5420 0
M  V30 1876 O  48.9670 -6.1390 8.5390 0
M  V30 1877 C  48.4340 -9.0750 7.2060 0
M  V30 1878 C  48.6600 -10.5870 7.1160 0
M  V30 1879 C  48.7170 -11.0290 5.6630 0
M  V30 1880 C  49.9250 -10.9940 7.8520 0
M  V30 1881 N  46.7740 -6.6440 8.4840 0
M  V30 1882 C  46.3840 -5.2380 8.4810 0 CFG=2
M  V30 1883 C  46.6620 -4.5890 9.8310 0
M  V30 1884 O  47.0690 -3.4240 9.8930 0
M  V30 1885 C  44.9070 -5.1010 8.1110 0
M  V30 1886 C  44.5060 -3.6660 7.8420 0
M  V30 1887 O  44.7900 -3.1680 6.7320 0
M  V30 1888 O  43.9080 -3.0350 8.7400 0 CHG=-1
M  V30 1889 N  46.4490 -5.3270 10.9230 0
M  V30 1890 C  46.7360 -4.7880 12.2480 0 CFG=2
M  V30 1891 C  48.2280 -4.5340 12.4280 0
M  V30 1892 O  48.6240 -3.5540 13.0700 0
M  V30 1893 C  46.2180 -5.7430 13.3230 0
M  V30 1894 C  46.2530 -5.1830 14.7300 0
M  V30 1895 C  47.4320 -5.1720 15.4670 0
M  V30 1896 C  45.1050 -4.6780 15.3250 0
M  V30 1897 C  47.4680 -4.6650 16.7520 0
M  V30 1898 C  45.1310 -4.1700 16.6110 0
M  V30 1899 C  46.3150 -4.1660 17.3200 0
M  V30 1900 O  46.3460 -3.6600 18.6000 0
M  V30 1901 N  49.0700 -5.4070 11.8730 0
M  V30 1902 C  50.5140 -5.2120 11.9820 0 CFG=2
M  V30 1903 C  50.9580 -3.9940 11.1870 0
M  V30 1904 O  51.9440 -3.3360 11.5410 0
M  V30 1905 C  51.2650 -6.4750 11.5240 0 CFG=2
M  V30 1906 C  51.0700 -7.6140 12.5300 0
M  V30 1907 C  52.7420 -6.1770 11.3250 0
M  V30 1908 C  51.8800 -8.8500 12.2100 0
M  V30 1909 N  50.2450 -3.6650 10.1140 0
M  V30 1910 C  50.6550 -2.5750 9.2360 0 CFG=2
M  V30 1911 C  50.1120 -1.2310 9.7070 0
M  V30 1912 O  50.8260 -0.2270 9.6760 0
M  V30 1913 C  50.2210 -2.8800 7.7870 0
M  V30 1914 C  50.4060 -1.6560 6.9070 0
M  V30 1915 C  51.0070 -4.0610 7.2370 0
M  V30 1916 N  48.8550 -1.1780 10.1580 0
M  V30 1917 C  48.1800 0.0910 10.4010 0 CFG=2
M  V30 1918 C  47.7900 0.3070 11.8560 0
M  V30 1919 O  47.0500 1.2540 12.1560 0
M  V30 1920 C  46.9280 0.1990 9.5190 0
M  V30 1921 C  47.2500 0.1220 8.0400 0
M  V30 1922 O  48.0700 1.0500 7.5630 0
M  V30 1923 N  46.7600 -0.7590 7.3340 0
M  V30 1924 N  48.2600 -0.5370 12.7720 0
M  V30 1925 C  47.9430 -0.4020 14.1800 0 CFG=2
M  V30 1926 C  49.2280 -0.3550 15.0040 0
M  V30 1927 O  50.2610 -0.8750 14.5750 0
M  V30 1928 C  47.0610 -1.5660 14.6650 0
M  V30 1929 C  45.6710 -1.5910 14.0310 0
M  V30 1930 C  44.8760 -0.3210 14.2910 0
M  V30 1931 O  45.1770 0.3870 15.2770 0
M  V30 1932 O  43.9490 -0.0270 13.5050 0 CHG=-1
M  V30 1933 N  49.1800 0.2720 16.1740 0
M  V30 1934 C  50.3890 0.3860 16.9800 0 CFG=2
M  V30 1935 C  50.9200 -0.9860 17.3450 0
M  V30 1936 O  50.1480 -1.9500 17.5000 0
M  V30 1937 C  49.9150 1.1560 18.2200 0
M  V30 1938 C  48.4350 0.9290 18.2660 0
M  V30 1939 C  48.0030 0.8490 16.8390 0
M  V30 1940 N  52.2330 -1.1190 17.4920 0
M  V30 1941 C  52.8250 -2.4370 17.7450 0 CFG=2
M  V30 1942 C  52.4880 -2.9270 19.1410 0
M  V30 1943 O  52.1410 -2.1280 20.0250 0
M  V30 1944 C  54.3310 -2.1820 17.5910 0
M  V30 1945 C  54.4900 -0.7400 17.9410 0
M  V30 1946 C  53.2490 -0.0530 17.4430 0
M  V30 1947 N  52.5740 -4.2320 19.3790 0
M  V30 1948 C  52.2750 -4.7620 20.7120 0 CFG=2
M  V30 1949 C  53.3700 -4.4190 21.7130 0
M  V30 1950 O  54.4870 -4.0300 21.3570 0
M  V30 1951 C  52.1860 -6.2740 20.4810 0
M  V30 1952 C  53.0530 -6.5150 19.2890 0
M  V30 1953 C  52.9070 -5.2980 18.4180 0
M  V30 1954 N  53.0270 -4.5740 22.9900 0
M  V30 1955 C  53.9480 -4.2790 24.0770 0 CFG=2
M  V30 1956 C  53.6820 -5.2470 25.2200 0
M  V30 1957 O  52.6950 -5.9880 25.2180 0
M  V30 1958 C  53.8120 -2.8270 24.5450 0
M  V30 1959 C  52.4130 -2.4560 25.0140 0
M  V30 1960 C  52.3540 -1.0220 25.5120 0
M  V30 1961 C  50.9560 -0.6680 25.9970 0
M  V30 1962 N  50.8850 0.7190 26.5330 0 CHG=1
M  V30 1963 N  54.5760 -5.2310 26.2010 0
M  V30 1964 C  54.4520 -6.0870 27.3690 0 CFG=2
M  V30 1965 C  53.6140 -5.4120 28.4480 0
M  V30 1966 O  53.5080 -4.1820 28.4930 0
M  V30 1967 C  55.8340 -6.4220 27.9230 0
M  V30 1968 C  56.7230 -7.3470 27.0950 0
M  V30 1969 C  58.0930 -7.4830 27.7390 0
M  V30 1970 C  56.0710 -8.7100 26.9320 0
M  V30 1971 N  52.9990 -6.1960 29.3310 0
M  V30 1972 C  52.3140 -5.6020 30.4840 0 CFG=2
M  V30 1973 C  53.2870 -4.7960 31.3330 0
M  V30 1974 O  54.4560 -5.1600 31.4850 0
M  V30 1975 C  51.7690 -6.8150 31.2390 0
M  V30 1976 C  51.6760 -7.8930 30.2080 0
M  V30 1977 C  52.8290 -7.6570 29.2790 0
M  V30 1978 N  52.7880 -3.6980 31.8970 0
M  V30 1979 C  53.6490 -2.7400 32.5750 0 CFG=2
M  V30 1980 C  54.1260 -3.2140 33.9410 0
M  V30 1981 O  55.1390 -2.7050 34.4330 0
M  V30 1982 C  52.9220 -1.4020 32.7280 0
M  V30 1983 O  52.5710 -0.8640 31.4660 0
M  V30 1984 N  53.4390 -4.1670 34.5650 0
M  V30 1985 C  53.7470 -4.5010 35.9430 0
M  V30 1986 C  54.4070 -5.8410 36.1850 0
M  V30 1987 O  54.8510 -6.1180 37.3040 0
M  V30 1988 N  54.4920 -6.6830 35.1570 0
M  V30 1989 C  54.9650 -8.0500 35.3420 0 CFG=2
M  V30 1990 C  56.4400 -8.1680 34.9780 0
M  V30 1991 O  57.1810 -8.9370 35.6000 0
M  V30 1992 C  54.1220 -9.0400 34.5190 0
M  V30 1993 C  54.5030 -10.4750 34.8610 0
M  V30 1994 C  52.6390 -8.7990 34.7600 0
M  V30 1995 N  56.8770 -7.4130 33.9730 0
M  V30 1996 C  58.2230 -7.5370 33.4340 0 CFG=2
M  V30 1997 C  59.0360 -6.2800 33.7200 0
M  V30 1998 O  58.4970 -5.1690 33.7730 0
M  V30 1999 C  58.1810 -7.8040 31.9270 0
M  V30 2000 C  57.2880 -8.9500 31.5450 0
M  V30 2001 C  57.7860 -10.2400 31.4760 0
M  V30 2002 C  55.9480 -8.7380 31.2660 0
M  V30 2003 C  56.9640 -11.2980 31.1270 0
M  V30 2004 C  55.1220 -9.7900 30.9170 0
M  V30 2005 C  55.6310 -11.0720 30.8480 0
M  V30 2006 N  60.3420 -6.4680 33.9010 0
M  V30 2007 C  61.2270 -5.3570 34.2070 0 CFG=2
M  V30 2008 C  61.1830 -4.3100 33.0990 0
M  V30 2009 O  60.7200 -4.5630 31.9830 0
M  V30 2010 C  62.6610 -5.8520 34.4030 0
M  V30 2011 O  63.2070 -6.3370 33.1880 0
M  V30 2012 N  61.6800 -3.1140 33.4210 0
M  V30 2013 C  61.6720 -2.0310 32.4440 0 CFG=2
M  V30 2014 C  62.6900 -2.2760 31.3380 0
M  V30 2015 O  62.4290 -1.9640 30.1700 0
M  V30 2016 C  61.9370 -0.6940 33.1360 0
M  V30 2017 C  60.8300 -0.2050 34.0710 0
M  V30 2018 C  61.1470 1.1820 34.6050 0
M  V30 2019 C  59.4850 -0.2180 33.3570 0
M  V30 2020 N  63.8540 -2.8340 31.6810 0
M  V30 2021 C  64.8510 -3.1310 30.6580 0 CFG=2
M  V30 2022 C  64.2910 -4.0810 29.6060 0
M  V30 2023 O  64.5100 -3.8890 28.4030 0
M  V30 2024 C  66.1100 -3.7230 31.2950 0
M  V30 2025 C  66.7560 -2.8480 32.3590 0
M  V30 2026 C  66.0950 -2.9970 33.7170 0
M  V30 2027 O  64.9840 -3.5660 33.7810 0
M  V30 2028 O  66.6880 -2.5510 34.7210 0 CHG=-1
M  V30 2029 N  63.5630 -5.1120 30.0400 0
M  V30 2030 C  62.9630 -6.0460 29.0920 0 CFG=2
M  V30 2031 C  61.8990 -5.3570 28.2450 0
M  V30 2032 O  61.8790 -5.5010 27.0180 0
M  V30 2033 C  62.3660 -7.2390 29.8360 0
M  V30 2034 C  61.9190 -8.3560 28.9360 0
M  V30 2035 C  62.5130 -8.5460 27.6990 0
M  V30 2036 C  60.8990 -9.2110 29.3210 0
M  V30 2037 C  62.1040 -9.5720 26.8680 0
M  V30 2038 C  60.4840 -10.2360 28.4930 0
M  V30 2039 C  61.0880 -10.4180 27.2660 0
M  V30 2040 N  61.0010 -4.6030 28.8870 0
M  V30 2041 C  59.9550 -3.9040 28.1460 0 CFG=2
M  V30 2042 C  60.5550 -2.9820 27.0930 0
M  V30 2043 O  60.1130 -2.9680 25.9370 0
M  V30 2044 C  59.0650 -3.1170 29.1070 0
M  V30 2045 C  58.3500 -3.9690 30.1380 0
M  V30 2046 C  57.3920 -3.1650 30.9920 0
M  V30 2047 O  56.6330 -2.3410 30.4830 0
M  V30 2048 N  57.4270 -3.3950 32.3010 0
M  V30 2049 N  61.5650 -2.1980 27.4770 0
M  V30 2050 C  62.2190 -1.3180 26.5130 0 CFG=2
M  V30 2051 C  62.9310 -2.1130 25.4300 0
M  V30 2052 O  63.0260 -1.6590 24.2840 0
M  V30 2053 C  63.2000 -0.3920 27.2270 0
M  V30 2054 C  63.7250 0.7040 26.3260 0
M  V30 2055 O  62.9360 1.6040 25.9670 0
M  V30 2056 O  64.9240 0.6650 25.9800 0 CHG=-1
M  V30 2057 N  63.4370 -3.3030 25.7720 0
M  V30 2058 C  64.0950 -4.1470 24.7780 0 CFG=2
M  V30 2059 C  63.1310 -4.5370 23.6660 0
M  V30 2060 O  63.4040 -4.3040 22.4820 0
M  V30 2061 C  64.6740 -5.3890 25.4610 0
M  V30 2062 C  65.4160 -6.3070 24.5330 0
M  V30 2063 C  66.6730 -5.9680 24.0640 0
M  V30 2064 C  64.8630 -7.5140 24.1430 0
M  V30 2065 C  67.3620 -6.8110 23.2150 0
M  V30 2066 C  65.5480 -8.3630 23.2960 0
M  V30 2067 C  66.7990 -8.0100 22.8310 0
M  V30 2068 N  61.9890 -5.1210 24.0280 0
M  V30 2069 C  61.0120 -5.5240 23.0210 0 CFG=2
M  V30 2070 C  60.4320 -4.3070 22.3110 0
M  V30 2071 O  60.1020 -4.3750 21.1210 0
M  V30 2072 C  59.9040 -6.3820 23.6610 0
M  V30 2073 C  60.5060 -7.5980 24.3500 0
M  V30 2074 C  59.0870 -5.5510 24.6390 0
M  V30 2075 N  60.2950 -3.1810 23.0160 0
M  V30 2076 C  59.7360 -1.9890 22.3880 0 CFG=2
M  V30 2077 C  60.6450 -1.4720 21.2810 0
M  V30 2078 O  60.1700 -1.0770 20.2090 0
M  V30 2079 C  59.4880 -0.9070 23.4390 0
M  V30 2080 C  58.2890 -1.2140 24.3150 0
M  V30 2081 O  57.3330 -1.8560 23.8790 0
M  V30 2082 N  58.3320 -0.7530 25.5590 0
M  V30 2083 N  61.9600 -1.4630 21.5190 0
M  V30 2084 C  62.8960 -1.0830 20.4650 0 CFG=2
M  V30 2085 C  62.9430 -2.1090 19.3440 0
M  V30 2086 O  63.3430 -1.7690 18.2250 0
M  V30 2087 C  64.2950 -0.8790 21.0470 0
M  V30 2088 C  64.4680 0.4290 21.8050 0
M  V30 2089 C  65.8820 0.5720 22.3450 0
M  V30 2090 C  66.1410 1.9830 22.8510 0
M  V30 2091 N  65.1640 2.3910 23.8980 0 CHG=1
M  V30 2092 N  62.5430 -3.3530 19.6130 0
M  V30 2093 C  62.4990 -4.3790 18.5790 0 CFG=2
M  V30 2094 C  61.2420 -4.3040 17.7270 0
M  V30 2095 O  61.2320 -4.8480 16.6190 0
M  V30 2096 C  62.5960 -5.7750 19.2040 0
M  V30 2097 S  64.2210 -6.2210 19.8480 0
M  V30 2098 N  60.1860 -3.6520 18.2130 0
M  V30 2099 C  58.8950 -3.6490 17.5370 0 CFG=2
M  V30 2100 C  58.5240 -2.2770 16.9790 0
M  V30 2101 O  57.3510 -2.0340 16.6760 0
M  V30 2102 C  57.8030 -4.1510 18.4840 0
M  V30 2103 C  57.9460 -5.5970 18.9650 0
M  V30 2104 C  56.7980 -5.9730 19.8890 0
M  V30 2105 C  58.0240 -6.5560 17.7870 0
M  V30 2106 N  59.4960 -1.3730 16.8390 0
M  V30 2107 C  59.2250 -0.1040 16.1760 0 CFG=2
M  V30 2108 C  58.8430 -0.3790 14.7300 0
M  V30 2109 O  59.5590 -1.0790 14.0020 0
M  V30 2110 C  60.4420 0.8260 16.2740 0 CFG=2
M  V30 2111 C  60.8020 1.0780 17.7400 0
M  V30 2112 C  60.1660 2.1390 15.5580 0
M  V30 2113 C  62.0410 1.9320 17.9260 0
M  V30 2114 N  57.7020 0.1690 14.3050 0
M  V30 2115 C  57.1640 -0.1810 12.9930 0 CFG=2
M  V30 2116 C  58.0430 0.3320 11.8590 0
M  V30 2117 O  58.1430 -0.3220 10.8150 0
M  V30 2118 C  55.7350 0.3450 12.8570 0
M  V30 2119 C  54.7740 -0.2670 13.8690 0
M  V30 2120 C  53.3520 0.2300 13.6800 0
M  V30 2121 C  52.7530 -0.2800 12.3820 0
M  V30 2122 N  51.3280 0.1270 12.2430 0 CHG=1
M  V30 2123 N  58.6850 1.4830 12.0320 0
M  V30 2124 C  59.6120 1.9690 11.0220 0 CFG=2
M  V30 2125 C  60.9090 1.1650 11.1000 0
M  V30 2126 O  61.5480 1.1500 12.1540 0
M  V30 2127 C  59.8980 3.4510 11.2130 0
M  V30 2128 C  60.7870 4.0210 10.1210 0
M  V30 2129 O  62.0130 3.9800 10.2160 0
M  V30 2130 N  60.1680 4.5580 9.0750 0
M  V30 2131 N  61.3200 0.4870 10.0250 0
M  V30 2132 C  62.4890 -0.3990 10.1360 0 CFG=2
M  V30 2133 C  63.7890 0.3360 10.4130 0
M  V30 2134 O  64.7110 -0.2610 10.9810 0
M  V30 2135 C  62.5200 -1.1080 8.7760 0
M  V30 2136 C  61.8260 -0.1670 7.8480 0
M  V30 2137 C  60.7510 0.4920 8.6680 0
M  V30 2138 N  63.8950 1.6110 10.0330 0
M  V30 2139 C  65.1330 2.3470 10.2690 0 CFG=2
M  V30 2140 C  65.2500 2.7990 11.7200 0
M  V30 2141 O  66.3270 2.6930 12.3170 0
M  V30 2142 C  65.2190 3.5470 9.3250 0
M  V30 2143 N  64.1600 3.3060 12.3010 0
M  V30 2144 C  64.1820 3.6620 13.7150 0 CFG=2
M  V30 2145 C  64.3430 2.4310 14.5960 0
M  V30 2146 O  64.8950 2.5250 15.6970 0
M  V30 2147 C  62.9020 4.4090 14.0950 0
M  V30 2148 C  62.6020 5.6250 13.2350 0
M  V30 2149 C  61.3750 6.3820 13.7140 0
M  V30 2150 O  61.3350 7.6220 13.5520 0
M  V30 2151 O  60.4540 5.7360 14.2610 0 CHG=-1
M  V30 2152 N  63.8710 1.2780 14.1300 0
M  V30 2153 C  63.9920 0.0470 14.8960 0 CFG=2
M  V30 2154 C  65.4570 -0.2570 15.1910 0
M  V30 2155 O  66.3590 0.1370 14.4480 0
M  V30 2156 C  63.3420 -1.1120 14.1340 0
M  V30 2157 C  63.2900 -2.4220 14.9000 0
M  V30 2158 C  62.1520 -3.3170 14.4280 0
M  V30 2159 N  62.3020 -3.7640 13.0430 0
M  V30 2160 C  61.5000 -3.4000 12.0450 0
M  V30 2161 N  60.4830 -2.5800 12.2710 0
M  V30 2162 N  61.7130 -3.8600 10.8210 0 CHG=1
M  V30 2163 N  65.6890 -0.9600 16.2950 0
M  V30 2164 C  67.0440 -1.2460 16.7420 0 CFG=2
M  V30 2165 C  67.6790 -2.3390 15.8910 0
M  V30 2166 O  67.0210 -3.3070 15.5030 0
M  V30 2167 C  67.0440 -1.6670 18.2110 0
M  V30 2168 N  68.9660 -2.1760 15.6010 0
M  V30 2169 C  69.7320 -3.1610 14.8590 0 CFG=2
M  V30 2170 C  70.4980 -4.0590 15.8310 0
M  V30 2171 O  70.4710 -3.8690 17.0490 0
M  V30 2172 C  70.6750 -2.4760 13.8650 0
M  V30 2173 C  71.6280 -1.5040 14.5350 0
M  V30 2174 O  71.5800 -1.3740 15.7750 0
M  V30 2175 O  72.4260 -0.8630 13.8170 0 CHG=-1
M  V30 2176 N  71.1920 -5.0550 15.2750 0
M  V30 2177 C  71.8960 -6.0230 16.1100 0 CFG=2
M  V30 2178 C  72.9300 -5.3440 16.9990 0
M  V30 2179 O  73.1170 -5.7380 18.1570 0
M  V30 2180 C  72.5560 -7.0870 15.2330 0
M  V30 2181 C  71.6180 -7.9470 14.3830 0
M  V30 2182 C  72.4130 -8.8450 13.4490 0
M  V30 2183 C  70.6980 -8.7730 15.2690 0
M  V30 2184 N  73.5960 -4.3270 16.4630 0
M  V30 2185 C  74.6190 -3.6000 17.2100 0 CFG=2
M  V30 2186 C  74.0560 -2.9120 18.4510 0
M  V30 2187 O  74.7290 -2.8190 19.4770 0
M  V30 2188 C  75.3090 -2.5730 16.3090 0
M  V30 2189 C  76.6380 -2.0680 16.8500 0
M  V30 2190 C  77.2940 -1.0950 15.8830 0
M  V30 2191 C  78.7030 -0.7420 16.3270 0
M  V30 2192 N  78.7870 -0.5450 17.8000 0 CHG=1
M  V30 2193 N  72.8220 -2.4310 18.3510 0
M  V30 2194 C  72.1750 -1.7440 19.4650 0 CFG=2
M  V30 2195 C  71.6650 -2.7220 20.5200 0
M  V30 2196 O  71.8300 -2.4990 21.7200 0
M  V30 2197 C  71.0220 -0.8740 18.9580 0
M  V30 2198 C  71.2080 0.6140 19.2060 0
M  V30 2199 C  69.9010 1.3790 19.1740 0
M  V30 2200 O  69.6050 2.0840 18.2100 0
M  V30 2201 N  69.1100 1.2430 20.2320 0
M  V30 2202 N  71.0420 -3.8030 20.0630 0
M  V30 2203 C  70.4980 -4.8200 20.9570 0 CFG=2
M  V30 2204 C  71.5970 -5.5410 21.7250 0
M  V30 2205 O  71.3990 -5.9200 22.8850 0
M  V30 2206 C  69.6610 -5.8250 20.1660 0
M  V30 2207 C  68.4300 -5.2750 19.4470 0
M  V30 2208 C  67.6500 -6.4020 18.7890 0
M  V30 2209 C  67.5480 -4.4980 20.4100 0
M  V30 2210 N  72.7610 -5.7370 21.1010 0
M  V30 2211 C  73.8350 -6.4730 21.7580 0 CFG=2
M  V30 2212 C  74.2970 -5.7800 23.0330 0
M  V30 2213 O  74.7750 -6.4440 23.9620 0
M  V30 2214 C  75.0120 -6.6510 20.7990 0
M  V30 2215 C  76.1280 -7.5190 21.3520 0
M  V30 2216 S  75.6090 -9.2280 21.5930 0
M  V30 2217 C  75.3950 -9.7560 19.8930 0
M  V30 2218 N  74.1700 -4.4560 23.1020 0
M  V30 2219 C  74.6470 -3.7000 24.2550 0 CFG=2
M  V30 2220 C  73.4750 -3.0250 24.9520 0
M  V30 2221 O  73.6460 -2.0020 25.6250 0
M  V30 2222 C  75.7100 -2.6670 23.8390 0
M  V30 2223 C  76.9000 -3.3660 23.1970 0
M  V30 2224 C  75.1130 -1.6390 22.8920 0
M  V30 2225 N  72.2800 -3.5840 24.8010 0
M  V30 2226 C  71.1160 -3.0540 25.4890 0 CFG=2
M  V30 2227 C  71.1600 -3.4300 26.9670 0
M  V30 2228 O  71.7760 -4.4290 27.3550 0
M  V30 2229 C  69.8280 -3.5700 24.8460 0
M  V30 2230 C  68.5850 -2.9210 25.3750 0
M  V30 2231 N  67.9220 -3.3820 26.4910 0
M  V30 2232 C  67.8810 -1.8500 24.9360 0
M  V30 2233 C  66.8650 -2.6210 26.7190 0
M  V30 2234 N  66.8180 -1.6850 25.7900 0
M  V30 2235 N  70.5030 -2.6130 27.7930 0
M  V30 2236 C  70.5100 -2.8600 29.2330 0 CFG=2
M  V30 2237 C  70.0170 -4.2640 29.5620 0
M  V30 2238 O  70.5870 -4.9470 30.4210 0
M  V30 2239 C  69.6590 -1.8110 29.9470 0
M  V30 2240 N  68.9590 -4.7170 28.8840 0
M  V30 2241 C  68.3990 -6.0300 29.1800 0 CFG=2
M  V30 2242 C  69.3620 -7.1480 28.8030 0
M  V30 2243 O  69.4600 -8.1560 29.5110 0
M  V30 2244 C  67.0620 -6.2030 28.4590 0
M  V30 2245 C  66.5000 -7.5930 28.5430 0
M  V30 2246 C  65.9070 -8.0470 29.7090 0
M  V30 2247 C  66.5590 -8.4450 27.4520 0
M  V30 2248 C  65.3890 -9.3260 29.7860 0
M  V30 2249 C  66.0410 -9.7250 27.5230 0
M  V30 2250 C  65.4560 -10.1660 28.6900 0
M  V30 2251 N  70.0840 -6.9930 27.6920 0
M  V30 2252 C  71.0290 -8.0250 27.2750 0 CFG=2
M  V30 2253 C  72.2760 -7.9970 28.1530 0
M  V30 2254 O  72.8020 -9.0480 28.5390 0
M  V30 2255 C  71.3790 -7.8650 25.7860 0 CFG=2
M  V30 2256 C  70.1170 -7.9920 24.9270 0
M  V30 2257 C  72.4090 -8.9000 25.3720 0
M  V30 2258 C  69.4830 -9.3640 24.9720 0
M  V30 2259 N  72.7780 -6.7990 28.4740 0
M  V30 2260 C  73.9040 -6.6950 29.3990 0 CFG=2
M  V30 2261 C  73.6010 -7.4170 30.7060 0
M  V30 2262 O  74.4100 -8.2130 31.1970 0
M  V30 2263 C  74.2340 -5.2250 29.6710 0
M  V30 2264 C  74.8670 -4.4830 28.5070 0
M  V30 2265 C  75.1820 -3.0440 28.8960 0
M  V30 2266 C  75.9120 -2.3110 27.7830 0
M  V30 2267 N  77.2340 -2.9260 27.4810 0 CHG=1
M  V30 2268 N  72.4290 -7.1460 31.2830 0
M  V30 2269 C  72.0520 -7.7810 32.5420 0 CFG=2
M  V30 2270 C  71.8940 -9.2870 32.3720 0
M  V30 2271 O  72.4610 -10.0740 33.1380 0
M  V30 2272 C  70.7580 -7.1590 33.0650 0
M  V30 2273 C  70.3240 -7.6590 34.4300 0
M  V30 2274 C  68.8550 -7.3570 34.6680 0
M  V30 2275 N  67.9920 -8.2170 33.8640 0
M  V30 2276 C  66.7030 -7.9860 33.6390 0
M  V30 2277 N  66.1210 -6.9080 34.1500 0
M  V30 2278 N  65.9960 -8.8260 32.8940 0 CHG=1
M  V30 2279 N  71.1270 -9.7070 31.3630 0
M  V30 2280 C  70.8570 -11.1290 31.1710 0 CFG=2
M  V30 2281 C  72.1140 -11.9190 30.8330 0
M  V30 2282 O  72.1160 -13.1460 30.9810 0
M  V30 2283 C  69.8090 -11.3220 30.0730 0
M  V30 2284 O  68.5470 -10.8230 30.4810 0
M  V30 2285 N  73.1780 -11.2530 30.3820 0
M  V30 2286 C  74.4170 -11.9660 30.0970 0 CFG=2
M  V30 2287 C  75.2160 -12.2420 31.3630 0
M  V30 2288 O  75.9120 -13.2600 31.4420 0
M  V30 2289 C  75.2650 -11.1770 29.0980 0
M  V30 2290 C  76.3790 -12.0100 28.4970 0
M  V30 2291 O  76.4270 -13.2280 28.7760 0
M  V30 2292 O  77.2050 -11.4500 27.7460 0 CHG=-1
M  V30 2293 N  75.1260 -11.3570 32.3580 0
M  V30 2294 C  75.8110 -11.5710 33.6270 0 CFG=2
M  V30 2295 C  75.0800 -12.5520 34.5320 0
M  V30 2296 O  75.7100 -13.1520 35.4080 0
M  V30 2297 C  75.9960 -10.2400 34.3590 0
M  V30 2298 N  73.7750 -12.7260 34.3410 0
M  V30 2299 C  73.0090 -13.6460 35.1710 0 CFG=2
M  V30 2300 C  73.4330 -15.0860 34.9130 0
M  V30 2301 O  73.6560 -15.4910 33.7690 0
M  V30 2302 C  71.5140 -13.4830 34.9000 0
M  V30 2303 C  70.9780 -12.0850 35.1690 0
M  V30 2304 C  69.5750 -11.8840 34.6290 0
M  V30 2305 O  69.1120 -12.7360 33.8390 0
M  V30 2306 O  68.9340 -10.8760 34.9930 0 CHG=-1
M  V30 2307 N  73.5440 -15.8640 35.9900 0
M  V30 2308 C  73.8900 -17.2830 35.9100 0 CFG=2
M  V30 2309 C  72.5930 -18.0780 36.0020 0
M  V30 2310 O  72.1880 -18.5230 37.0750 0
M  V30 2311 C  74.8680 -17.6730 37.0140 0
M  V30 2312 C  75.3170 -19.1270 36.9610 0
M  V30 2313 C  76.5140 -19.3390 36.0530 0
M  V30 2314 O  77.6580 -19.2800 36.5560 0
M  V30 2315 O  76.3140 -19.5570 34.8380 0 CHG=-1
M  V30 2316 N  71.9340 -18.2540 34.8590 0
M  V30 2317 C  70.6630 -18.9640 34.7790 0 CFG=2
M  V30 2318 C  70.9280 -20.3790 34.2870 0
M  V30 2319 O  71.6750 -20.5810 33.3210 0
M  V30 2320 C  69.6730 -18.2350 33.8540 0
M  V30 2321 C  68.2720 -18.8090 34.0210 0
M  V30 2322 C  69.6840 -16.7400 34.1340 0
M  V30 2323 N  70.3200 -21.3590 34.9540 0
M  V30 2324 C  70.4490 -22.7640 34.5690 0 CFG=2
M  V30 2325 C  69.3710 -23.0670 33.5360 0
M  V30 2326 O  68.2600 -23.4820 33.8650 0
M  V30 2327 C  70.3340 -23.6710 35.7900 0
M  V30 2328 C  70.4610 -25.1420 35.4380 0
M  V30 2329 O  70.7970 -25.4540 34.2760 0
M  V30 2330 O  70.2210 -25.9880 36.3260 0 CHG=-1
M  V30 2331 N  69.7070 -22.8550 32.2640 0
M  V30 2332 C  68.7280 -23.0590 31.2000 0 CFG=2
M  V30 2333 C  68.4470 -24.5410 30.9840 0
M  V30 2334 O  67.2870 -24.9510 30.8600 0
M  V30 2335 C  69.2130 -22.4080 29.9040 0
M  V30 2336 C  68.2980 -22.6360 28.7380 0
M  V30 2337 C  67.1740 -21.8490 28.5590 0
M  V30 2338 C  68.5580 -23.6410 27.8220 0
M  V30 2339 C  66.3280 -22.0590 27.4900 0
M  V30 2340 C  67.7170 -23.8560 26.7500 0
M  V30 2341 C  66.6010 -23.0640 26.5830 0
M  V30 2342 N  69.4980 -25.3620 30.9340 0
M  V30 2343 C  69.3070 -26.7900 30.7070 0 CFG=2
M  V30 2344 C  68.4130 -27.4040 31.7780 0
M  V30 2345 O  67.5370 -28.2230 31.4720 0
M  V30 2346 C  70.6610 -27.5000 30.6600 0
M  V30 2347 N  68.6180 -27.0230 33.0390 0
M  V30 2348 C  67.7700 -27.5400 34.1010 0
M  V30 2349 C  66.3270 -27.0950 33.9640 0
M  V30 2350 O  65.4000 -27.8790 34.1780 0
M  V30 2351 N  66.1170 -25.8230 33.6060 0
M  V30 2352 C  64.7590 -25.3340 33.4020 0 CFG=2
M  V30 2353 C  64.0720 -26.0820 32.2680 0
M  V30 2354 O  62.9070 -26.4820 32.3950 0
M  V30 2355 C  64.7820 -23.8300 33.1160 0
M  V30 2356 C  63.4360 -23.2630 32.7890 0
M  V30 2357 C  62.5200 -22.7710 33.6700 0
M  V30 2358 C  62.8510 -23.1320 31.4890 0
M  V30 2359 N  61.4000 -22.3400 32.9990 0
M  V30 2360 C  61.5780 -22.5530 31.6590 0
M  V30 2361 C  63.2800 -23.4500 30.1950 0
M  V30 2362 C  60.7290 -22.2820 30.5870 0
M  V30 2363 C  62.4360 -23.1810 29.1320 0
M  V30 2364 C  61.1760 -22.6040 29.3340 0
M  V30 2365 N  64.7780 -26.2870 31.1570 0
M  V30 2366 C  64.1900 -26.9840 30.0190 0 CFG=2
M  V30 2367 C  63.7810 -28.4020 30.3960 0
M  V30 2368 O  62.6270 -28.8010 30.1950 0
M  V30 2369 C  65.1740 -26.9980 28.8490 0
M  V30 2370 C  64.7490 -27.8150 27.6300 0
M  V30 2371 C  63.4920 -27.2390 27.0030 0
M  V30 2372 C  65.8760 -27.8860 26.6130 0
M  V30 2373 N  64.7160 -29.1820 30.9460 0
M  V30 2374 C  64.4060 -30.5630 31.2970 0 CFG=2
M  V30 2375 C  63.3030 -30.6450 32.3440 0
M  V30 2376 O  62.5790 -31.6460 32.4070 0
M  V30 2377 C  65.6660 -31.2780 31.7850 0
M  V30 2378 S  66.8270 -31.7100 30.4650 0
M  V30 2379 N  63.1580 -29.6110 33.1750 0
M  V30 2380 C  62.0400 -29.5760 34.1130 0 CFG=2
M  V30 2381 C  60.7310 -29.2900 33.3900 0
M  V30 2382 O  59.7160 -29.9520 33.6380 0
M  V30 2383 C  62.2930 -28.5280 35.1950 0
M  V30 2384 O  61.1020 -28.2430 35.9090 0
M  V30 2385 N  60.7350 -28.3070 32.4870 0
M  V30 2386 C  59.5180 -27.9600 31.7600 0 CFG=2
M  V30 2387 C  59.0150 -29.1350 30.9340 0
M  V30 2388 O  57.8060 -29.3760 30.8600 0
M  V30 2389 C  59.7700 -26.7470 30.8630 0 CFG=2
M  V30 2390 O  60.2520 -25.6530 31.6560 0
M  V30 2391 C  58.4880 -26.3300 30.1620 0
M  V30 2392 N  59.9280 -29.8780 30.3070 0
M  V30 2393 C  59.5240 -31.0080 29.4730 0 CFG=2
M  V30 2394 C  59.1650 -32.2150 30.3330 0
M  V30 2395 O  58.1570 -32.8860 30.0870 0
M  V30 2396 C  60.6330 -31.3450 28.4620 0 CFG=2
M  V30 2397 C  60.9700 -30.1190 27.6130 0
M  V30 2398 C  60.2100 -32.5070 27.5810 0
M  V30 2399 C  62.0890 -30.3530 26.6210 0
M  V30 2400 N  59.9750 -32.5130 31.3440 0
M  V30 2401 C  59.7190 -33.6480 32.2070 0
M  V30 2402 C  60.8950 -34.5980 32.2980 0
M  V30 2403 O  60.7880 -35.6710 32.8950 0
M  V30 2404 N  62.0220 -34.2160 31.7050 0
M  V30 2405 C  63.2200 -35.0380 31.7640 0 CFG=2
M  V30 2406 C  63.9760 -34.7850 33.0660 0
M  V30 2407 O  63.7590 -33.7890 33.7620 0
M  V30 2408 C  64.1220 -34.7610 30.5600 0
M  V30 2409 C  63.4790 -34.9520 29.1820 0
M  V30 2410 C  64.4980 -34.7340 28.0720 0
M  V30 2411 C  62.8370 -36.3310 29.0700 0
M  V30 2412 N  64.8750 -35.7080 33.3920 0
M  V30 2413 C  65.6010 -35.6560 34.6580 0 CFG=2
M  V30 2414 C  66.7220 -34.6200 34.6390 0
M  V30 2415 O  67.3130 -34.3490 33.5950 0
M  V30 2416 C  66.1700 -37.0360 34.9980 0
M  V30 2417 C  65.0890 -38.0930 35.1350 0
M  V30 2418 O  64.8150 -38.8050 34.0470 0
M  V30 2419 N  64.5090 -38.2680 36.2060 0
M  V30 2420 P  56.3610 -23.6550 9.5780 0
M  V30 2421 O  55.2440 -22.7140 9.2300 0 CHG=-1
M  V30 2422 O  57.7750 -22.9730 9.3060 0 CHG=-1
M  V30 2423 O  56.2590 -24.9650 8.6810 0
M  V30 2424 P  57.1870 -25.0680 11.8980 0
M  V30 2425 O  58.5210 -24.3650 11.9080 0 CHG=-1
M  V30 2426 O  56.6490 -25.4460 13.3320 0
M  V30 2427 N  56.0640 -24.0370 11.2060 0
M  V30 2428 P  58.6930 -27.0790 10.6120 0
M  V30 2429 O  58.5300 -27.5830 9.2090 0 CHG=-1
M  V30 2430 O  59.8710 -26.0950 10.7730 0
M  V30 2431 O  57.3110 -26.3760 11.0430 0
M  V30 2432 O  58.7920 -28.3090 11.6640 0
M  V30 2433 C  57.7060 -28.6460 12.5930 0
M  V30 2434 C  58.2310 -29.0940 13.9470 0 CFG=1
M  V30 2435 O  59.3500 -29.9740 13.7460 0
M  V30 2436 C  58.7360 -27.9860 14.8770 0 CFG=1
M  V30 2437 O  57.7290 -27.4120 15.7200 0
M  V30 2438 C  59.8530 -28.6750 15.6860 0 CFG=1
M  V30 2439 O  59.4160 -29.0570 16.9810 0
M  V30 2440 C  60.2130 -29.9230 14.8630 0 CFG=2
M  V30 2441 N  61.5950 -29.9180 14.3790 0
M  V30 2442 C  62.0670 -29.4050 13.1930 0
M  V30 2443 N  63.3690 -29.5190 13.0410 0
M  V30 2444 C  63.7830 -30.1510 14.2080 0
M  V30 2445 C  65.0540 -30.5710 14.6680 0
M  V30 2446 N  66.1920 -30.4060 13.9830 0
M  V30 2447 N  65.1150 -31.1820 15.8780 0
M  V30 2448 C  63.9840 -31.3430 16.5750 0
M  V30 2449 N  62.7360 -30.9850 16.2490 0
M  V30 2450 C  62.7010 -30.3950 15.0460 0
M  V30 2451 H  83.5667 -18.8325 23.4142 0
M  V30 2452 H  84.4484 -19.6755 22.3046 0
M  V30 2453 H  85.7316 -19.3072 24.2386 0
M  V30 2454 H  83.9986 -19.0761 25.8865 0
M  V30 2455 H  85.0110 -20.4170 26.3573 0
M  V30 2456 H  85.3841 -21.9710 25.8913 0
M  V30 2457 H  87.0274 -23.5307 23.9940 0
M  V30 2458 H  87.9779 -24.5919 25.8959 0
M  V30 2459 H  86.6780 -24.1123 26.9394 0
M  V30 2460 H  87.3893 -21.7667 26.8521 0
M  V30 2461 H  88.6046 -22.1402 25.6563 0
M  V30 2462 H  84.2966 -24.0347 26.3274 0
M  V30 2463 H  83.8708 -26.7420 25.5363 0
M  V30 2464 H  81.7898 -24.7733 26.5477 0
M  V30 2465 H  82.9225 -25.5789 27.5782 0
M  V30 2466 H  82.0188 -27.7884 26.8898 0
M  V30 2467 H  80.9052 -27.0029 25.7991 0
M  V30 2468 H  79.5808 -27.5374 29.4246 0
M  V30 2469 H  80.7784 -28.5066 28.5960 0
M  V30 2470 H  82.6390 -23.6544 24.1999 0
M  V30 2471 H  80.8661 -24.9081 22.3235 0
M  V30 2472 H  81.1561 -22.7011 21.0649 0
M  V30 2473 H  82.2780 -22.2207 22.2879 0
M  V30 2474 H  80.4865 -22.5344 24.0290 0
M  V30 2475 H  79.3599 -22.9427 22.7586 0
M  V30 2476 H  80.6543 -19.0868 22.5255 0
M  V30 2477 H  81.8297 -20.3679 22.7192 0
M  V30 2478 H  84.3298 -23.9648 22.1300 0
M  V30 2479 H  84.5978 -24.6929 19.3698 0
M  V30 2480 H  86.8370 -24.9235 21.3840 0
M  V30 2481 H  86.1962 -23.3676 20.9878 0
M  V30 2482 H  86.6152 -23.9956 18.5054 0
M  V30 2483 H  87.5767 -25.3277 19.1398 0
M  V30 2484 H  89.1144 -23.8559 20.2112 0
M  V30 2485 H  88.0345 -22.4789 20.0590 0
M  V30 2486 H  89.7997 -23.5960 18.0196 0
M  V30 2487 H  87.2456 -20.5455 17.2692 0
M  V30 2488 H  87.0753 -21.4915 18.7308 0
M  V30 2489 H  88.9148 -21.0310 15.7737 0
M  V30 2490 H  90.0207 -22.3484 16.0925 0
M  V30 2491 H  85.0289 -26.5661 22.4112 0
M  V30 2492 H  85.8912 -28.9804 21.2462 0
M  V30 2493 H  84.1300 -29.7528 23.2663 0
M  V30 2494 H  84.5342 -28.1525 23.7367 0
M  V30 2495 H  86.9394 -28.6905 23.7345 0
M  V30 2496 H  86.5858 -30.3161 23.1313 0
M  V30 2497 H  85.1334 -30.6553 25.1952 0
M  V30 2498 H  85.7434 -29.1278 25.8041 0
M  V30 2499 H  87.4524 -31.5442 25.0866 0
M  V30 2500 H  86.9918 -31.0812 26.7098 0
M  V30 2501 H  88.1106 -28.8854 26.1457 0
M  V30 2502 H  89.0831 -30.1883 26.4214 0
M  V30 2503 H  88.8011 -29.6819 24.8776 0
M  V30 2504 H  82.5036 -27.8490 21.7998 0
M  V30 2505 H  81.3876 -30.2698 20.7381 0
M  V30 2506 H  79.2613 -28.8736 20.6518 0
M  V30 2507 H  80.1970 -27.5178 21.1966 0
M  V30 2508 H  80.9111 -28.9848 23.1986 0
M  V30 2509 H  79.6665 -30.1066 22.6873 0
M  V30 2510 H  78.0037 -28.1899 22.8012 0
M  V30 2511 H  79.2754 -27.2063 23.5090 0
M  V30 2512 H  78.9861 -29.7014 24.9036 0
M  V30 2513 H  76.8526 -26.4765 26.1072 0
M  V30 2514 H  77.5749 -26.5006 24.5140 0
M  V30 2515 H  77.1132 -28.2643 27.5136 0
M  V30 2516 H  78.0351 -29.6591 26.9990 0
M  V30 2517 H  82.2063 -27.1160 19.2485 0
M  V30 2518 H  80.8819 -27.6729 16.7691 0
M  V30 2519 H  83.0024 -26.0509 16.0817 0
M  V30 2520 H  82.9047 -25.7339 17.7553 0
M  V30 2521 H  81.5718 -24.0847 16.7065 0
M  V30 2522 H  79.7608 -24.6003 15.1179 0
M  V30 2523 H  81.3403 -25.1674 14.5257 0
M  V30 2524 H  80.1779 -26.3279 15.2106 0
M  V30 2525 H  79.2941 -24.5180 17.5424 0
M  V30 2526 H  79.6951 -26.2421 17.7260 0
M  V30 2527 H  80.5352 -25.0231 18.7136 0
M  V30 2528 H  84.3163 -28.1480 17.7893 0
M  V30 2529 H  85.0693 -29.3596 15.3075 0
M  V30 2530 H  86.2400 -29.4709 18.0983 0
M  V30 2531 H  86.7643 -28.4918 16.7805 0
M  V30 2532 H  88.3262 -30.0940 16.4538 0
M  V30 2533 H  87.0498 -30.9797 15.6566 0
M  V30 2534 H  83.4820 -30.6617 18.2106 0
M  V30 2535 H  83.9511 -33.4186 17.4777 0
M  V30 2536 H  82.1986 -33.9205 19.1459 0
M  V30 2537 H  83.4120 -32.7824 19.7779 0
M  V30 2538 H  81.8184 -32.1855 19.2572 0
M  V30 2539 H  81.3609 -31.0545 16.7570 0
M  V30 2540 H  79.6259 -32.9974 15.5463 0
M  V30 2541 H  79.8661 -29.9989 15.1294 0
M  V30 2542 H  78.8228 -30.7953 16.2603 0
M  V30 2543 H  76.9843 -32.3530 15.3302 0
M  V30 2544 H  79.1651 -29.6161 12.8917 0
M  V30 2545 H  75.2303 -32.4739 13.6258 0
M  V30 2546 H  77.4077 -29.7369 11.1886 0
M  V30 2547 H  75.4341 -31.1647 11.5496 0
M  V30 2548 H  82.1474 -30.8162 14.1595 0
M  V30 2549 H  81.7970 -31.6602 11.4744 0
M  V30 2550 H  84.4437 -31.2041 11.5026 0
M  V30 2551 H  84.1264 -30.5676 13.0346 0
M  V30 2552 H  82.7054 -29.6244 10.5243 0
M  V30 2553 H  82.0862 -27.6678 11.8812 0
M  V30 2554 H  81.4312 -29.1790 12.5553 0
M  V30 2555 H  82.8554 -28.4157 13.3011 0
M  V30 2556 H  84.2054 -27.6716 10.6304 0
M  V30 2557 H  85.0827 -28.4290 11.9808 0
M  V30 2558 H  85.0992 -29.1886 10.3715 0
M  V30 2559 H  83.6832 -33.1402 14.1439 0
M  V30 2560 H  84.9243 -35.1487 12.5663 0
M  V30 2561 H  84.0083 -35.2478 15.4616 0
M  V30 2562 H  85.5082 -33.6120 15.1582 0
M  V30 2563 H  85.7135 -37.0149 15.7011 0
M  V30 2564 H  84.4487 -37.4969 14.5456 0
M  V30 2565 H  86.0332 -36.9457 13.9518 0
M  V30 2566 H  81.8242 -35.2940 14.4260 0
M  V30 2567 H  81.1776 -37.9152 13.4712 0
M  V30 2568 H  78.8726 -37.3732 14.2288 0
M  V30 2569 H  79.3110 -35.7090 14.4139 0
M  V30 2570 H  79.3483 -36.8391 16.5795 0
M  V30 2571 H  80.9531 -36.2876 16.1635 0
M  V30 2572 H  82.4083 -39.4451 16.4585 0
M  V30 2573 H  82.5735 -37.7039 16.4221 0
M  V30 2574 H  80.7872 -34.7022 12.0362 0
M  V30 2575 H  78.8145 -35.5593 10.1050 0
M  V30 2576 H  80.7357 -33.2055 10.0458 0
M  V30 2577 H  79.1797 -33.1899 10.7875 0
M  V30 2578 H  78.1055 -33.6246 8.5766 0
M  V30 2579 H  79.7048 -33.6157 7.8223 0
M  V30 2580 H  80.0621 -31.2942 8.6356 0
M  V30 2581 H  78.4679 -31.3044 9.3687 0
M  V30 2582 H  77.4314 -31.6368 7.1452 0
M  V30 2583 H  79.0279 -31.6618 6.3990 0
M  V30 2584 H  78.2133 -29.4936 6.1775 0
M  V30 2585 H  77.7183 -29.3967 7.7475 0
M  V30 2586 H  79.3278 -29.3957 7.3889 0
M  V30 2587 H  82.3776 -35.6030 10.1857 0
M  V30 2588 H  82.6396 -36.0952 7.3558 0
M  V30 2589 H  84.5177 -36.7229 9.6603 0
M  V30 2590 H  84.4943 -35.2506 8.7498 0
M  V30 2591 H  85.0390 -36.5722 6.6662 0
M  V30 2592 H  85.1621 -38.0080 7.6517 0
M  V30 2593 H  88.6258 -36.9107 7.3325 0
M  V30 2594 H  87.3663 -37.6860 6.3982 0
M  V30 2595 H  81.9370 -38.1849 10.1327 0
M  V30 2596 H  82.5477 -40.6399 8.7769 0
M  V30 2597 H  81.0463 -41.6612 10.5202 0
M  V30 2598 H  80.6174 -40.0798 11.0566 0
M  V30 2599 H  82.8409 -39.6077 11.8396 0
M  V30 2600 H  83.5115 -40.9925 10.9856 0
M  V30 2601 H  83.2834 -41.4693 13.3925 0
M  V30 2602 H  82.2651 -42.5368 12.4414 0
M  V30 2603 H  80.3061 -41.0686 12.8991 0
M  V30 2604 H  81.3256 -40.0112 13.8579 0
M  V30 2605 H  79.9703 -41.8709 14.9855 0
M  V30 2606 H  81.2138 -42.8530 14.5291 0
M  V30 2607 H  81.5020 -41.5603 15.5114 0
M  V30 2608 H  80.0800 -38.3637 8.1353 0
M  V30 2609 H  78.2576 -40.4441 7.0774 0
M  V30 2610 H  77.9146 -37.4662 7.5655 0
M  V30 2611 H  75.5986 -37.7665 6.7774 0
M  V30 2612 H  76.7817 -38.0938 5.4889 0
M  V30 2613 H  75.9764 -39.4448 6.3217 0
M  V30 2614 H  76.1705 -38.2120 9.1365 0
M  V30 2615 H  76.5665 -39.9068 8.7649 0
M  V30 2616 H  77.7684 -38.8672 9.5661 0
M  V30 2617 H  78.5965 -41.0329 5.0324 0
M  V30 2618 H  79.6093 -40.8614 2.8998 0
M  V30 2619 H  79.9582 -39.1703 3.1938 0
M  V30 2620 H  78.4914 -40.7683 0.9839 0
M  V30 2621 H  76.5367 -38.8134 0.3420 0
M  V30 2622 H  76.8987 -41.6863 -0.5751 0
M  V30 2623 H  77.4985 -40.2693 -1.3575 0
M  V30 2624 H  75.1264 -39.5166 -1.7670 0
M  V30 2625 H  74.5605 -41.0002 -1.0426 0
M  V30 2626 H  74.4264 -38.5520 0.8211 0
M  V30 2627 H  73.3090 -40.3479 2.8883 0
M  V30 2628 H  71.5743 -38.4637 3.0282 0
M  V30 2629 H  72.5336 -37.5712 1.9288 0
M  V30 2630 H  74.4285 -37.5394 3.4950 0
M  V30 2631 H  73.4192 -36.1592 5.2648 0
M  V30 2632 H  72.7589 -35.7643 3.6601 0
M  V30 2633 H  71.8059 -36.7472 4.7972 0
M  V30 2634 H  74.1801 -38.4455 5.7714 0
M  V30 2635 H  72.6034 -39.1349 5.3175 0
M  V30 2636 H  74.0897 -39.7209 4.5335 0
M  V30 2637 H  72.1209 -41.9912 2.1720 0
M  V30 2638 H  70.4184 -41.5800 -0.2292 0
M  V30 2639 H  70.5351 -43.9713 -0.5907 0
M  V30 2640 H  71.3233 -44.2392 0.9239 0
M  V30 2641 H  73.2987 -42.8832 0.0683 0
M  V30 2642 H  72.5008 -42.8374 -1.5024 0
M  V30 2643 H  72.5375 -45.2719 -1.6531 0
M  V30 2644 H  73.1638 -45.4048 -0.0137 0
M  V30 2645 H  75.2129 -44.1585 -0.7226 0
M  V30 2646 H  74.5918 -44.0957 -2.3613 0
M  V30 2647 H  75.5918 -46.3945 -0.8737 0
M  V30 2648 H  74.4512 -46.6560 -2.0356 0
M  V30 2649 H  75.8862 -45.9476 -2.4335 0
M  V30 2650 H  68.3075 -42.5175 -0.1991 0
M  V30 2651 H  66.9697 -42.0173 2.2856 0
M  V30 2652 H  65.9445 -43.5100 -0.1546 0
M  V30 2653 H  65.9313 -41.7750 0.0278 0
M  V30 2654 H  68.3711 -44.9543 0.9085 0
M  V30 2655 H  66.8173 -46.7134 2.6188 0
M  V30 2656 H  68.8647 -48.2897 1.9542 0
M  V30 2657 H  69.1656 -47.0356 0.7760 0
M  V30 2658 H  69.8134 -44.8850 3.0243 0
M  V30 2659 H  70.8564 -46.5700 5.1132 0
M  V30 2660 H  72.3486 -44.5815 5.5632 0
M  V30 2661 H  71.4670 -43.6959 4.3445 0
M  V30 2662 H  68.0882 -44.6605 5.2347 0
M  V30 2663 H  68.5910 -43.8656 8.0532 0
M  V30 2664 H  66.5466 -42.4224 7.7133 0
M  V30 2665 H  66.5209 -42.8936 6.0480 0
M  V30 2666 H  68.8327 -41.3799 8.5776 0
M  V30 2667 H  67.6818 -41.6032 4.4761 0
M  V30 2668 H  70.3932 -39.5751 8.0394 0
M  V30 2669 H  69.2482 -39.7945 3.9429 0
M  V30 2670 H  70.6031 -38.7700 5.7262 0
M  V30 2671 H  67.3712 -44.6528 9.6863 0
M  V30 2672 H  65.0223 -46.3404 8.9726 0
M  V30 2673 H  66.5499 -46.6630 11.5544 0
M  V30 2674 H  67.1777 -47.4032 10.1145 0
M  V30 2675 H  65.1458 -48.7124 9.8044 0
M  V30 2676 H  64.3285 -47.8440 11.0770 0
M  V30 2677 H  63.1279 -45.5965 9.7235 0
M  V30 2678 H  63.1495 -42.9954 10.9946 0
M  V30 2679 H  60.7794 -44.8017 10.3977 0
M  V30 2680 H  61.5380 -43.8379 9.1898 0
M  V30 2681 H  61.0978 -41.8927 11.0317 0
M  V30 2682 H  59.7870 -43.0011 11.4488 0
M  V30 2683 H  60.3366 -41.7175 8.7473 0
M  V30 2684 H  58.9495 -41.4482 9.7920 0
M  V30 2685 H  58.2294 -43.7944 9.4703 0
M  V30 2686 H  59.6372 -44.1051 8.4715 0
M  V30 2687 H  57.5387 -42.1276 7.8366 0
M  V30 2688 H  58.8300 -42.5064 6.8835 0
M  V30 2689 H  57.6583 -43.6310 7.1696 0
M  V30 2690 H  62.9845 -42.5011 13.0856 0
M  V30 2691 H  62.5653 -44.7189 14.9986 0
M  V30 2692 H  63.6428 -41.9020 15.3485 0
M  V30 2693 H  65.1782 -43.4505 14.2161 0
M  V30 2694 H  64.9638 -44.6347 15.4644 0
M  V30 2695 H  64.1437 -42.5645 17.6676 0
M  V30 2696 H  62.3950 -42.5721 17.3375 0
M  V30 2697 H  63.2946 -44.1062 17.4042 0
M  V30 2698 H  67.0685 -43.4241 15.7700 0
M  V30 2699 H  66.1879 -41.8796 15.8480 0
M  V30 2700 H  65.9678 -43.0951 17.1292 0
M  V30 2701 H  61.7483 -41.2150 15.1048 0
M  V30 2702 H  58.9289 -41.9045 15.5984 0
M  V30 2703 H  59.9871 -41.9470 17.8537 0
M  V30 2704 H  58.8091 -40.6463 17.6805 0
M  V30 2705 H  60.5928 -39.2190 17.2664 0
M  V30 2706 H  57.5245 -40.0970 15.3900 0
M  V30 2707 H  58.5518 -38.0599 13.5750 0
M  V30 2708 H  55.8213 -38.4811 14.8424 0
M  V30 2709 H  56.2988 -38.9883 13.2590 0
M  V30 2710 H  56.8153 -36.4193 12.8695 0
M  V30 2711 H  55.7812 -36.1867 14.2554 0
M  V30 2712 H  58.9413 -35.9381 13.9728 0
M  V30 2713 H  59.0627 -35.1849 16.8365 0
M  V30 2714 H  60.6577 -33.4238 16.0106 0
M  V30 2715 H  60.4885 -34.0116 14.4201 0
M  V30 2716 H  61.4385 -36.2129 15.0954 0
M  V30 2717 H  63.7467 -35.4301 15.4407 0
M  V30 2718 H  62.9012 -34.4766 14.1984 0
M  V30 2719 H  63.1319 -33.8062 15.8308 0
M  V30 2720 H  62.4986 -36.4358 17.3094 0
M  V30 2721 H  61.8231 -34.8595 17.7847 0
M  V30 2722 H  60.7360 -36.2244 17.4348 0
M  V30 2723 H  57.8481 -34.0384 13.6674 0
M  V30 2724 H  57.0228 -31.4680 14.6229 0
M  V30 2725 H  55.6929 -32.6229 14.8045 0
M  V30 2726 H  55.1114 -30.6616 13.2232 0
M  V30 2727 H  55.9488 -30.9554 10.4857 0
M  V30 2728 H  53.8085 -31.7613 9.5572 0
M  V30 2729 H  54.5661 -32.9935 10.5941 0
M  V30 2730 H  53.1952 -32.0370 11.2049 0
M  V30 2731 H  54.4021 -29.6256 9.0632 0
M  V30 2732 H  54.1651 -27.0384 10.2803 0
M  V30 2733 H  52.5880 -27.7665 10.1193 0
M  V30 2734 H  52.2236 -25.8598 8.6795 0
M  V30 2735 H  52.0217 -26.5625 6.0226 0
M  V30 2736 H  50.7948 -24.6883 6.3132 0
M  V30 2737 H  52.2404 -23.8608 5.7919 0
M  V30 2738 H  52.2494 -21.9534 8.7192 0
M  V30 2739 H  52.3545 -22.0334 6.9748 0
M  V30 2740 H  53.9475 -27.6296 5.3572 0
M  V30 2741 H  56.4583 -26.1609 5.2744 0
M  V30 2742 H  55.6744 -26.2816 3.7158 0
M  V30 2743 H  56.0102 -28.5705 6.4846 0
M  V30 2744 H  57.9069 -30.2787 5.3381 0
M  V30 2745 H  56.3823 -30.8074 4.7006 0
M  V30 2746 H  58.1663 -32.2897 6.4223 0
M  V30 2747 H  56.9019 -32.3121 9.0672 0
M  V30 2748 H  55.3866 -33.7468 7.7595 0
M  V30 2749 H  56.2132 -35.8196 6.7189 0
M  V30 2750 H  56.9174 -34.3711 5.9619 0
M  V30 2751 H  57.8835 -35.3387 7.1011 0
M  V30 2752 H  55.5861 -35.8021 9.1053 0
M  V30 2753 H  57.2314 -35.3223 9.5849 0
M  V30 2754 H  55.8355 -34.3404 10.0893 0
M  V30 2755 H  58.1798 -33.4144 10.6062 0
M  V30 2756 H  60.9460 -33.9659 9.6576 0
M  V30 2757 H  60.1394 -32.5350 12.2134 0
M  V30 2758 H  62.5600 -32.1242 12.4476 0
M  V30 2759 H  62.1816 -33.8631 12.4446 0
M  V30 2760 H  62.8609 -33.0977 10.9886 0
M  V30 2761 H  61.1455 -30.5387 11.1781 0
M  V30 2762 H  61.3919 -31.4515 9.6704 0
M  V30 2763 H  59.7426 -31.1275 10.2550 0
M  V30 2764 H  61.7298 -35.8864 10.2474 0
M  V30 2765 H  60.4139 -37.3259 12.4931 0
M  V30 2766 H  61.1986 -39.4131 11.3729 0
M  V30 2767 H  61.8541 -38.4902 10.0694 0
M  V30 2768 H  58.7776 -39.7536 11.5945 0
M  V30 2769 H  60.3752 -37.4193 8.4043 0
M  V30 2770 H  56.6292 -39.8752 10.4324 0
M  V30 2771 H  58.2254 -37.5417 7.2397 0
M  V30 2772 H  56.3429 -38.7742 8.2470 0
M  V30 2773 H  61.7227 -38.2840 14.0333 0
M  V30 2774 H  64.6012 -37.6926 13.9398 0
M  V30 2775 H  63.0400 -39.4224 15.8999 0
M  V30 2776 H  63.2663 -37.7110 16.0931 0
M  V30 2777 H  65.5945 -37.9176 16.4743 0
M  V30 2778 H  65.6757 -39.5008 15.7348 0
M  V30 2779 H  65.8642 -39.7684 18.1309 0
M  V30 2780 H  64.3246 -40.4342 17.6214 0
M  V30 2781 H  63.1833 -38.3416 18.3068 0
M  V30 2782 H  64.7268 -37.6608 18.8051 0
M  V30 2783 H  63.8191 -38.5226 20.7329 0
M  V30 2784 H  63.2588 -39.8966 20.0134 0
M  V30 2785 H  64.8744 -39.7078 20.2846 0
M  V30 2786 H  66.1244 -39.0153 13.1092 0
M  V30 2787 H  65.3078 -41.7765 12.3943 0
M  V30 2788 H  66.2781 -41.5554 10.1763 0
M  V30 2789 H  64.6327 -40.0280 9.1574 0
M  V30 2790 H  63.9003 -41.0365 10.4277 0
M  V30 2791 H  64.2934 -39.3329 10.7602 0
M  V30 2792 H  67.0136 -39.3710 9.3054 0
M  V30 2793 H  66.7595 -38.6501 10.9125 0
M  V30 2794 H  68.0059 -39.8998 10.6848 0
M  V30 2795 H  67.1897 -43.1098 11.7496 0
M  V30 2796 H  69.6966 -42.2555 13.1072 0
M  V30 2797 H  68.5417 -45.0712 12.9818 0
M  V30 2798 H  68.4414 -44.0180 14.3912 0
M  V30 2799 H  70.7627 -43.9724 14.4005 0
M  V30 2800 H  71.3420 -42.1093 11.7251 0
M  V30 2801 H  71.0877 -43.1606 9.0134 0
M  V30 2802 H  73.4338 -41.7928 10.3822 0
M  V30 2803 H  72.1509 -40.9450 9.5859 0
M  V30 2804 H  72.0470 -41.3722 6.8086 0
M  V30 2805 H  76.1167 -42.7657 6.6531 0
M  V30 2806 H  71.2314 -45.3326 8.8456 0
M  V30 2807 H  72.4809 -46.9678 10.7676 0
M  V30 2808 H  72.3950 -48.7121 8.8538 0
M  V30 2809 H  71.6841 -47.4545 7.8900 0
M  V30 2810 H  70.2125 -47.3669 10.2896 0
M  V30 2811 H  70.4802 -49.0729 10.0191 0
M  V30 2812 H  69.3793 -47.1887 7.8990 0
M  V30 2813 H  68.3700 -48.1366 8.9755 0
M  V30 2814 H  69.5036 -50.2212 8.1217 0
M  V30 2815 H  70.3819 -49.2264 6.9694 0
M  V30 2816 H  68.3746 -48.6290 5.9179 0
M  V30 2817 H  68.3061 -50.2637 6.1237 0
M  V30 2818 H  67.4389 -49.2709 7.1144 0
M  V30 2819 H  76.3127 -47.3829 7.8781 0
M  V30 2820 H  76.9137 -46.1202 6.0533 0
M  V30 2821 H  76.4086 -44.5527 6.8599 0
M  V30 2822 H  74.7425 -46.6759 5.5399 0
M  V30 2823 H  74.6768 -44.8613 5.3709 0
M  V30 2824 H  73.6418 -44.5954 7.4013 0
M  V30 2825 H  72.9845 -46.2594 6.9345 0
M  V30 2826 H  75.3666 -44.7411 9.9773 0
M  V30 2827 H  78.0940 -44.8325 11.1241 0
M  V30 2828 H  77.9788 -42.8446 9.6333 0
M  V30 2829 H  78.2409 -42.4283 11.3295 0
M  V30 2830 H  75.8669 -42.1918 9.7973 0
M  V30 2831 H  74.8035 -45.1833 11.7575 0
M  V30 2832 H  75.2909 -45.3210 14.5686 0
M  V30 2833 H  73.7557 -45.4805 13.7894 0
M  V30 2834 H  75.0524 -42.5094 12.8134 0
M  V30 2835 H  74.5348 -40.9680 15.1610 0
M  V30 2836 H  74.5170 -39.0454 13.5418 0
M  V30 2837 H  74.5253 -40.1204 12.2401 0
M  V30 2838 H  76.7686 -40.9532 12.8319 0
M  V30 2839 H  78.0070 -38.8711 12.3868 0
M  V30 2840 H  76.5558 -39.0162 11.3669 0
M  V30 2841 H  76.5479 -37.9296 12.7763 0
M  V30 2842 H  78.0642 -39.8823 14.6296 0
M  V30 2843 H  76.6193 -38.9681 15.1229 0
M  V30 2844 H  76.6419 -40.7418 15.2662 0
M  V30 2845 H  72.7500 -39.9444 15.8855 0
M  V30 2846 H  70.1893 -40.5394 14.5285 0
M  V30 2847 H  70.8322 -39.4339 17.2855 0
M  V30 2848 H  68.4066 -39.5792 17.7004 0
M  V30 2849 H  68.7855 -38.4207 16.4037 0
M  V30 2850 H  68.1478 -40.0320 15.9989 0
M  V30 2851 H  69.8508 -41.5549 18.0669 0
M  V30 2852 H  69.6325 -42.0719 16.3781 0
M  V30 2853 H  71.2707 -41.8306 17.0301 0
M  V30 2854 H  69.2089 -39.0373 13.3218 0
M  V30 2855 H  70.0480 -36.2071 13.6509 0
M  V30 2856 H  69.8655 -36.0213 11.1255 0
M  V30 2857 H  69.7470 -37.7385 11.0336 0
M  V30 2858 H  72.0052 -37.8971 12.1957 0
M  V30 2859 H  72.1214 -36.1554 12.0752 0
M  V30 2860 H  71.9826 -39.0426 8.4549 0
M  V30 2861 H  72.0527 -39.5537 10.1581 0
M  V30 2862 H  70.5856 -38.7715 9.5234 0
M  V30 2863 H  68.5248 -34.6685 12.7791 0
M  V30 2864 H  65.7329 -35.6587 12.6995 0
M  V30 2865 H  65.1220 -33.2726 12.9066 0
M  V30 2866 H  66.1888 -33.7807 14.2374 0
M  V30 2867 H  66.8451 -32.8280 12.8851 0
M  V30 2868 H  64.6656 -35.7911 10.8038 0
M  V30 2869 H  66.0353 -34.6777 8.4020 0
M  V30 2870 H  64.5460 -37.3050 8.7355 0
M  V30 2871 H  66.2542 -37.1218 8.4972 0
M  V30 2872 H  65.9033 -36.2045 6.2484 0
M  V30 2873 H  64.1607 -36.2170 6.4853 0
M  V30 2874 H  64.2151 -38.6875 6.7405 0
M  V30 2875 H  65.9537 -38.6750 6.5042 0
M  V30 2876 H  64.7638 -37.3312 4.3241 0
M  V30 2877 H  64.7672 -41.3789 4.1978 0
M  V30 2878 H  64.9686 -40.5507 5.7255 0
M  V30 2879 H  64.5024 -40.1742 2.2640 0
M  V30 2880 H  64.5015 -38.4256 2.3133 0
M  V30 2881 H  64.8812 -32.9321 7.8215 0
M  V30 2882 H  61.9526 -32.9562 8.0400 0
M  V30 2883 H  63.9062 -30.8785 6.9782 0
M  V30 2884 H  63.2352 -30.9006 8.5706 0
M  V30 2885 H  61.0298 -30.3845 7.7867 0
M  V30 2886 H  61.4537 -30.7626 6.1178 0
M  V30 2887 H  61.3907 -28.3475 6.3880 0
M  V30 2888 H  63.0474 -28.8485 6.1021 0
M  V30 2889 H  63.2629 -27.3369 7.8805 0
M  V30 2890 H  63.2877 -28.8923 8.6886 0
M  V30 2891 H  61.7480 -27.0206 9.5262 0
M  V30 2892 H  60.7268 -27.5310 8.3363 0
M  V30 2893 H  61.1985 -28.5754 9.5220 0
M  V30 2894 H  60.5356 -33.1686 6.3750 0
M  V30 2895 H  61.6969 -33.8016 3.7054 0
M  V30 2896 H  59.6336 -35.2899 3.4770 0
M  V30 2897 H  59.3200 -35.0509 5.1322 0
M  V30 2898 H  61.8176 -35.9425 5.4508 0
M  V30 2899 H  60.8978 -38.2149 5.6775 0
M  V30 2900 H  59.8026 -36.9895 6.3601 0
M  V30 2901 H  59.4488 -37.7142 4.7737 0
M  V30 2902 H  62.3531 -37.6612 3.7684 0
M  V30 2903 H  60.9555 -37.1402 2.7976 0
M  V30 2904 H  62.3221 -36.0302 3.0572 0
M  V30 2905 H  61.3263 -32.0238 2.5063 0
M  V30 2906 H  58.7214 -30.6398 2.7305 0
M  V30 2907 H  61.1516 -29.9173 1.0569 0
M  V30 2908 H  61.6144 -29.9766 3.5341 0
M  V30 2909 H  60.3498 -28.8116 3.7713 0
M  V30 2910 H  60.0983 -27.6895 0.9849 0
M  V30 2911 H  59.0522 -28.9417 0.2744 0
M  V30 2912 H  58.7139 -28.3212 1.9078 0
M  V30 2913 H  62.5407 -27.7154 3.7174 0
M  V30 2914 H  62.8488 -28.3761 2.0940 0
M  V30 2915 H  61.5523 -27.1816 2.3372 0
M  V30 2916 H  57.1180 -31.2692 1.4212 0
M  V30 2917 H  57.8293 -32.6230 -1.1293 0
M  V30 2918 H  55.1629 -32.4694 0.3244 0
M  V30 2919 H  56.2627 -33.8079 0.4210 0
M  V30 2920 H  54.1637 -31.9706 -2.0367 0
M  V30 2921 H  56.0909 -35.5673 -1.5729 0
M  V30 2922 H  53.3409 -33.3204 -4.0043 0
M  V30 2923 H  58.2268 -31.0628 -2.5968 0
M  V30 2924 H  56.1763 -28.9301 -2.9218 0
M  V30 2925 H  58.0482 -27.7739 -4.2281 0
M  V30 2926 H  59.1212 -28.9647 -3.6861 0
M  V30 2927 H  58.8161 -28.2852 -1.3371 0
M  V30 2928 H  59.8441 -26.0478 -1.5086 0
M  V30 2929 H  60.5426 -27.1888 -2.6822 0
M  V30 2930 H  59.3669 -25.9664 -3.2212 0
M  V30 2931 H  57.4863 -26.2841 -0.7903 0
M  V30 2932 H  56.9180 -26.2074 -2.4750 0
M  V30 2933 H  56.4733 -27.5911 -1.4481 0
M  V30 2934 H  55.0511 -28.8800 -4.7867 0
M  V30 2935 H  55.7942 -30.8146 -6.9049 0
M  V30 2936 H  53.5616 -30.0412 -7.8796 0
M  V30 2937 H  53.3151 -29.1295 -6.4294 0
M  V30 2938 H  53.4835 -31.2240 -5.0772 0
M  V30 2939 H  53.7282 -32.1421 -6.5406 0
M  V30 2940 H  57.6952 -29.7095 -7.5182 0
M  V30 2941 H  57.2089 -27.1990 -9.0384 0
M  V30 2942 H  59.4750 -26.4646 -8.4394 0
M  V30 2943 H  60.4888 -28.6941 -8.1429 0
M  V30 2944 H  59.5281 -28.9828 -6.7335 0
M  V30 2945 H  59.0818 -25.9529 -6.0614 0
M  V30 2946 H  57.6071 -25.7369 -7.0338 0
M  V30 2947 H  57.7963 -27.1826 -6.0135 0
M  V30 2948 H  61.8005 -28.3306 -6.1127 0
M  V30 2949 H  61.6268 -26.8040 -7.0106 0
M  V30 2950 H  60.6385 -27.1009 -5.5607 0
M  V30 2951 H  58.4997 -26.9246 -10.9036 0
M  V30 2952 H  58.9641 -29.2768 -12.4162 0
M  V30 2953 H  58.6539 -27.1433 -13.5259 0
M  V30 2954 H  60.1771 -27.8137 -13.9919 0
M  V30 2955 H  61.3588 -26.3243 -12.3978 0
M  V30 2956 H  59.8158 -25.6647 -11.8669 0
M  V30 2957 H  60.8050 -25.5550 -14.7443 0
M  V30 2958 H  61.0385 -24.2582 -13.5826 0
M  V30 2959 H  58.3301 -25.3778 -14.4083 0
M  V30 2960 H  59.0483 -23.9242 -15.0711 0
M  V30 2961 H  58.3234 -24.3457 -12.2411 0
M  V30 2962 H  59.0510 -22.9886 -12.8310 0
M  V30 2963 H  57.5270 -23.3858 -13.3197 0
M  V30 2964 H  62.6001 -30.9095 -10.7124 0
M  V30 2965 H  63.3662 -32.5524 -12.1288 0
M  V30 2966 H  63.5392 -31.3869 -13.5307 0
M  V30 2967 H  61.0969 -32.7468 -12.4328 0
M  V30 2968 H  61.6480 -32.5408 -14.1578 0
M  V30 2969 H  61.0078 -30.3417 -14.2202 0
M  V30 2970 H  59.7629 -30.9956 -13.0166 0
M  V30 2971 H  63.1854 -28.7543 -13.5573 0
M  V30 2972 H  65.9171 -28.2903 -13.0581 0
M  V30 2973 H  65.6036 -26.1764 -14.3040 0
M  V30 2974 H  64.7876 -27.5439 -15.0985 0
M  V30 2975 H  63.8395 -26.3640 -14.1626 0
M  V30 2976 H  63.0494 -26.6203 -11.6598 0
M  V30 2977 H  64.6795 -24.7924 -10.1370 0
M  V30 2978 H  61.7912 -25.6648 -9.9461 0
M  V30 2979 H  62.4427 -24.2297 -11.8444 0
M  V30 2980 H  63.1551 -23.0763 -10.7668 0
M  V30 2981 H  61.4650 -23.8888 -8.2703 0
M  V30 2982 H  62.5464 -25.1710 -7.6757 0
M  V30 2983 H  63.2233 -23.6187 -8.2225 0
M  V30 2984 H  60.9395 -22.3333 -11.4888 0
M  V30 2985 H  60.2106 -23.8228 -10.8427 0
M  V30 2986 H  60.9428 -22.6375 -9.7353 0
M  V30 2987 H  63.2263 -27.9953 -9.4443 0
M  V30 2988 H  63.8735 -27.9999 -6.6720 0
M  V30 2989 H  63.3579 -30.1425 -8.7232 0
M  V30 2990 H  62.3633 -29.6524 -7.3991 0
M  V30 2991 H  63.2271 -31.2762 -6.1171 0
M  V30 2992 H  64.8423 -30.5765 -6.2859 0
M  V30 2993 H  64.8654 -32.8764 -7.0934 0
M  V30 2994 H  65.1305 -31.7776 -8.4371 0
M  V30 2995 H  62.3408 -32.4128 -8.0744 0
M  V30 2996 H  62.3341 -34.6666 -10.7806 0
M  V30 2997 H  61.3449 -33.7418 -9.6731 0
M  V30 2998 H  64.6230 -34.5497 -10.6498 0
M  V30 2999 H  65.3812 -33.5358 -9.4424 0
M  V30 3000 H  65.7914 -29.0472 -9.5329 0
M  V30 3001 H  67.9622 -30.0789 -7.9890 0
M  V30 3002 H  69.3020 -29.7226 -10.0845 0
M  V30 3003 H  67.9424 -28.8776 -10.7798 0
M  V30 3004 H  67.1525 -32.0314 -12.1929 0
M  V30 3005 H  67.8553 -30.4533 -12.4685 0
M  V30 3006 H  67.2165 -26.7722 -9.1358 0
M  V30 3007 H  69.7295 -25.6721 -8.2819 0
M  V30 3008 H  67.0155 -24.3293 -8.5718 0
M  V30 3009 H  68.1432 -24.5573 -9.8576 0
M  V30 3010 H  69.8141 -23.1376 -8.6625 0
M  V30 3011 H  68.6785 -22.9116 -7.3544 0
M  V30 3012 H  68.1426 -19.8742 -9.2213 0
M  V30 3013 H  69.1823 -20.5960 -8.0137 0
M  V30 3014 H  66.6306 -26.2704 -6.6036 0
M  V30 3015 H  67.2942 -24.8100 -4.2445 0
M  V30 3016 H  65.4843 -27.1920 -4.7202 0
M  V30 3017 H  64.8995 -25.0208 -5.8049 0
M  V30 3018 H  64.9061 -24.2440 -4.2578 0
M  V30 3019 H  64.5141 -26.7328 -2.5009 0
M  V30 3020 H  66.2181 -27.2341 -2.3901 0
M  V30 3021 H  65.7813 -25.5189 -2.2050 0
M  V30 3022 H  62.6209 -24.7862 -4.9444 0
M  V30 3023 H  63.0509 -26.5080 -5.0774 0
M  V30 3024 H  63.0577 -25.7094 -3.4870 0
M  V30 3025 H  67.7629 -28.2830 -5.0865 0
M  V30 3026 H  69.0321 -28.9973 -2.6572 0
M  V30 3027 H  69.5060 -30.0877 -5.4533 0
M  V30 3028 H  67.8586 -31.7860 -4.8606 0
M  V30 3029 H  67.1546 -30.2062 -4.7763 0
M  V30 3030 H  70.2894 -32.1177 -4.3005 0
M  V30 3031 H  71.3111 -30.7092 -3.9270 0
M  V30 3032 H  70.1224 -31.2873 -2.7353 0
M  V30 3033 H  66.4463 -31.5724 -2.8747 0
M  V30 3034 H  68.1429 -31.8172 -2.3966 0
M  V30 3035 H  67.4194 -30.1936 -2.3099 0
M  V30 3036 H  70.4499 -27.7473 -5.7233 0
M  V30 3037 H  73.1424 -27.8195 -4.8356 0
M  V30 3038 H  71.7306 -26.0047 -6.8173 0
M  V30 3039 H  72.5425 -27.4843 -7.1749 0
M  V30 3040 H  74.6907 -26.3551 -6.2453 0
M  V30 3041 H  73.7841 -24.8541 -6.3248 0
M  V30 3042 H  74.4975 -26.7117 -8.6218 0
M  V30 3043 H  75.0386 -25.0705 -8.3799 0
M  V30 3044 H  72.8835 -24.2549 -8.9762 0
M  V30 3045 H  71.8992 -27.9163 -10.4079 0
M  V30 3046 H  73.2656 -27.7373 -9.3302 0
M  V30 3047 H  70.6646 -26.0839 -11.0147 0
M  V30 3048 H  71.0851 -24.5002 -10.4018 0
M  V30 3049 H  70.7006 -25.1721 -4.6047 0
M  V30 3050 H  72.4983 -23.3360 -3.3588 0
M  V30 3051 H  70.3519 -22.2355 -2.5475 0
M  V30 3052 H  69.4728 -23.5460 -3.2435 0
M  V30 3053 H  70.4185 -22.9971 -5.4916 0
M  V30 3054 H  71.3016 -21.6671 -4.7853 0
M  V30 3055 H  70.5233 -25.9818 -2.0184 0
M  V30 3056 H  70.6547 -25.0813 0.6909 0
M  V30 3057 H  70.3012 -27.6192 1.1495 0
M  V30 3058 H  70.2526 -27.8224 -0.5337 0
M  V30 3059 H  68.2839 -26.3752 -0.7438 0
M  V30 3060 H  66.6824 -27.7608 0.5117 0
M  V30 3061 H  67.9448 -28.7466 -0.2641 0
M  V30 3062 H  68.0208 -28.4179 1.4833 0
M  V30 3063 H  67.1802 -25.4635 1.2594 0
M  V30 3064 H  68.5364 -26.0342 2.2604 0
M  V30 3065 H  68.8060 -24.7769 1.0300 0
M  V30 3066 H  73.1174 -26.5216 -1.3320 0
M  V30 3067 H  74.5384 -27.8452 0.7773 0
M  V30 3068 H  76.3994 -27.9393 -0.8081 0
M  V30 3069 H  75.6628 -26.7343 -1.8136 0
M  V30 3070 H  75.3303 -29.0135 -2.7148 0
M  V30 3071 H  73.8113 -28.2244 -2.3786 0
M  V30 3072 H  72.7680 -31.1191 -0.6992 0
M  V30 3073 H  72.5110 -29.9676 -1.9909 0
M  V30 3074 H  74.1156 -24.4779 0.2141 0
M  V30 3075 H  76.6456 -23.5662 1.1881 0
M  V30 3076 H  73.9047 -22.3040 1.5268 0
M  V30 3077 H  75.1613 -20.1932 1.7410 0
M  V30 3078 H  75.5692 -21.3429 3.0367 0
M  V30 3079 H  76.6892 -21.1033 1.6746 0
M  V30 3080 H  74.4871 -21.0164 -0.4926 0
M  V30 3081 H  75.9880 -21.9589 -0.6539 0
M  V30 3082 H  74.4096 -22.7639 -0.8204 0
M  V30 3083 H  73.9429 -25.1335 2.7754 0
M  V30 3084 H  74.3467 -24.0740 5.3819 0
M  V30 3085 H  73.1659 -26.1972 6.1143 0
M  V30 3086 H  73.2107 -26.7420 4.4865 0
M  V30 3087 H  71.8733 -24.7820 3.7562 0
M  V30 3088 H  69.7521 -25.4369 4.8143 0
M  V30 3089 H  70.7305 -26.8518 4.3583 0
M  V30 3090 H  70.6550 -26.3328 6.0589 0
M  V30 3091 H  70.8361 -23.3214 5.4474 0
M  V30 3092 H  71.7973 -24.1190 6.7151 0
M  V30 3093 H  72.6100 -23.1793 5.4409 0
M  V30 3094 H  76.2629 -26.3980 3.5849 0
M  V30 3095 H  77.4796 -27.6368 5.8612 0
M  V30 3096 H  79.4434 -27.9524 4.2313 0
M  V30 3097 H  78.4896 -27.1237 3.0503 0
M  V30 3098 H  76.7174 -28.6345 1.7843 0
M  V30 3099 H  77.0616 -32.0947 4.3232 0
M  V30 3100 H  77.8665 -24.4218 4.4756 0
M  V30 3101 H  80.4367 -24.0048 5.7987 0
M  V30 3102 H  80.3177 -21.7625 4.8712 0
M  V30 3103 H  78.6443 -21.9303 4.5009 0
M  V30 3104 H  80.1273 -22.1642 2.5092 0
M  V30 3105 H  79.0785 -23.5378 2.7478 0
M  V30 3106 H  77.1373 -23.8270 6.8088 0
M  V30 3107 H  77.6059 -21.6273 8.7003 0
M  V30 3108 H  75.2615 -22.0120 9.3396 0
M  V30 3109 H  75.1978 -23.4556 8.4011 0
M  V30 3110 H  75.5350 -22.1028 5.8767 0
M  V30 3111 H  79.1422 -22.3033 10.1591 0
M  V30 3112 H  78.3876 -24.6239 11.8627 0
M  V30 3113 H  80.7939 -25.1045 12.1450 0
M  V30 3114 H  81.1991 -23.8283 11.0256 0
M  V30 3115 H  79.1685 -26.7537 9.0967 0
M  V30 3116 H  78.4339 -25.9232 10.4498 0
M  V30 3117 H  77.3508 -23.2116 13.3058 0
M  V30 3118 H  79.2180 -21.6761 15.0000 0
M  V30 3119 H  76.5434 -20.6251 13.9765 0
M  V30 3120 H  78.1296 -19.9932 13.5454 0
M  V30 3121 H  78.3432 -19.1168 15.5161 0
M  V30 3122 H  76.9817 -23.8684 18.0952 0
M  V30 3123 H  78.5776 -23.1691 19.6093 0
M  V30 3124 H  77.1932 -22.1360 20.2282 0
M  V30 3125 H  79.5098 -21.0668 19.5138 0
M  V30 3126 H  77.9216 -20.2895 19.0777 0
M  V30 3127 H  78.8176 -20.3987 16.9859 0
M  V30 3128 H  79.8178 -21.8963 17.4009 0
M  V30 3129 H  75.8773 -20.8921 16.7935 0
M  V30 3130 H  73.3384 -21.1165 18.3107 0
M  V30 3131 H  72.9270 -18.8054 17.7229 0
M  V30 3132 H  74.3067 -18.7632 16.6611 0
M  V30 3133 H  73.2712 -18.9303 20.2247 0
M  V30 3134 H  76.5642 -18.4657 17.5442 0
M  V30 3135 H  74.6860 -18.2147 22.0838 0
M  V30 3136 H  77.9746 -17.7526 19.4101 0
M  V30 3137 H  78.1222 -17.7908 21.7375 0
M  V30 3138 H  74.5902 -22.3277 15.5479 0
M  V30 3139 H  71.9795 -22.1033 14.1405 0
M  V30 3140 H  74.7407 -22.4715 12.9158 0
M  V30 3141 H  74.3944 -20.2623 11.9176 0
M  V30 3142 H  74.4001 -20.1685 13.6472 0
M  V30 3143 H  73.5571 -22.3178 10.7615 0
M  V30 3144 H  73.0132 -23.7175 11.7165 0
M  V30 3145 H  72.0026 -22.2554 11.6256 0
M  V30 3146 H  72.6260 -18.7726 12.7100 0
M  V30 3147 H  71.9173 -20.1888 11.8980 0
M  V30 3148 H  71.9232 -20.0924 13.6751 0
M  V30 3149 H  70.9567 -24.0011 13.8037 0
M  V30 3150 H  71.8477 -26.3496 15.1159 0
M  V30 3151 H  69.8591 -26.0296 12.8408 0
M  V30 3152 H  68.9487 -28.1905 13.6031 0
M  V30 3153 H  70.6258 -28.3469 13.0284 0
M  V30 3154 H  70.2810 -28.3330 14.7743 0
M  V30 3155 H  68.1782 -26.0789 14.6459 0
M  V30 3156 H  69.4840 -26.1476 15.8531 0
M  V30 3157 H  69.2980 -24.7073 14.8244 0
M  V30 3158 H  73.0174 -28.0948 14.5208 0
M  V30 3159 H  74.6335 -29.2429 13.3019 0
M  V30 3160 H  74.9257 -27.7488 12.4219 0
M  V30 3161 H  75.0986 -28.5458 10.3802 0
M  V30 3162 H  72.6467 -29.7722 9.2265 0
M  V30 3163 H  74.6943 -27.8638 8.0450 0
M  V30 3164 H  73.0195 -27.5402 8.3364 0
M  V30 3165 H  71.2993 -29.1170 7.0607 0
M  V30 3166 H  75.3752 -28.5792 5.9151 0
M  V30 3167 H  70.7647 -29.8721 4.7931 0
M  V30 3168 H  74.8348 -29.3309 3.6490 0
M  V30 3169 H  72.5278 -29.9809 3.0793 0
M  V30 3170 H  72.8329 -31.7458 8.3594 0
M  V30 3171 H  75.5463 -32.9026 8.1509 0
M  V30 3172 H  74.0831 -35.0598 7.8736 0
M  V30 3173 H  72.7788 -34.0828 8.4502 0
M  V30 3174 H  76.2130 -35.2436 9.3649 0
M  V30 3175 H  72.5038 -33.6934 10.7973 0
M  V30 3176 H  76.9330 -35.6480 11.6629 0
M  V30 3177 H  73.2251 -34.1040 13.0993 0
M  V30 3178 H  76.4097 -35.5150 13.8119 0
M  V30 3179 H  72.5392 -32.4943 6.2033 0
M  V30 3180 H  73.7346 -33.8370 3.9158 0
M  V30 3181 H  73.8217 -32.1098 3.7760 0
M  V30 3182 H  72.4193 -31.9535 2.0183 0
M  V30 3183 H  69.6000 -32.7516 2.5319 0
M  V30 3184 H  68.9291 -30.7970 1.1730 0
M  V30 3185 H  69.8514 -30.2977 2.6107 0
M  V30 3186 H  70.6364 -30.3209 1.0137 0
M  V30 3187 H  68.5225 -33.7737 0.8979 0
M  V30 3188 H  69.7594 -33.9641 -1.7540 0
M  V30 3189 H  70.8743 -35.7968 -0.5556 0
M  V30 3190 H  69.8190 -36.4000 -1.7879 0
M  V30 3191 H  70.4100 -36.1893 1.8099 0
M  V30 3192 H  67.6837 -37.5247 -1.1845 0
M  V30 3193 H  69.2795 -37.5964 3.4631 0
M  V30 3194 H  66.5509 -38.9254 0.4716 0
M  V30 3195 H  67.3450 -38.9673 2.8007 0
M  V30 3196 H  68.2458 -35.8036 -2.9428 0
M  V30 3197 H  65.4292 -35.1303 -2.2937 0
M  V30 3198 H  66.8231 -34.7436 -4.9680 0
M  V30 3199 H  66.0849 -33.5159 -4.0015 0
M  V30 3200 H  63.5903 -33.3349 -3.8675 0
M  V30 3201 H  65.4618 -36.2500 -6.3633 0
M  V30 3202 H  61.4846 -33.6657 -5.0649 0
M  V30 3203 H  63.3524 -36.5814 -7.5541 0
M  V30 3204 H  61.2244 -35.9904 -7.7395 0
M  V30 3205 H  64.1318 -36.8615 -2.3847 0
M  V30 3206 H  64.6128 -38.9938 -4.2966 0
M  V30 3207 H  66.1958 -39.5809 -2.4008 0
M  V30 3208 H  64.9855 -40.8070 -2.7754 0
M  V30 3209 H  63.7326 -39.9680 -1.0126 0
M  V30 3210 H  62.7780 -40.1963 -4.6538 0
M  V30 3211 H  60.5559 -40.6330 -4.6972 0
M  V30 3212 H  59.5020 -41.2205 -2.5703 0
M  V30 3213 H  60.7543 -40.3895 -1.6798 0
M  V30 3214 H  61.2330 -37.9095 -5.1062 0
M  V30 3215 H  58.5780 -36.8660 -5.0130 0
M  V30 3216 H  59.9537 -36.0698 -5.6220 0
M  V30 3217 H  61.1736 -36.5649 -2.6732 0
M  V30 3218 H  59.9543 -34.0629 -1.6301 0
M  V30 3219 H  60.0468 -34.9666 0.6642 0
M  V30 3220 H  60.6449 -36.4776 0.0901 0
M  V30 3221 H  58.5362 -36.9151 -1.1104 0
M  V30 3222 H  57.9270 -35.3395 -0.6538 0
M  V30 3223 H  61.4164 -32.5904 -0.9737 0
M  V30 3224 H  64.2573 -33.2511 -1.1220 0
M  V30 3225 H  62.8204 -30.7158 -0.2627 0
M  V30 3226 H  62.4702 -31.3417 -2.6335 0
M  V30 3227 H  64.1837 -31.4735 -2.8721 0
M  V30 3228 H  65.0180 -29.6299 -0.5268 0
M  V30 3229 H  65.0426 -30.8721 0.7473 0
M  V30 3230 H  65.7577 -31.2169 -0.8454 0
M  V30 3231 H  63.3527 -29.3274 -3.7170 0
M  V30 3232 H  62.7066 -28.9260 -2.1081 0
M  V30 3233 H  64.4641 -29.0612 -2.3528 0
M  V30 3234 H  65.2969 -34.2365 0.4830 0
M  V30 3235 H  64.2559 -33.9541 3.2470 0
M  V30 3236 H  65.5928 -35.9369 3.7590 0
M  V30 3237 H  66.2999 -35.9238 2.1461 0
M  V30 3238 H  64.2552 -36.3802 1.2830 0
M  V30 3239 H  65.3313 -32.7584 4.6997 0
M  V30 3240 H  68.1850 -32.1145 4.1425 0
M  V30 3241 H  66.3900 -30.2724 5.7126 0
M  V30 3242 H  65.2996 -30.6190 3.5034 0
M  V30 3243 H  66.7815 -30.2480 2.6938 0
M  V30 3244 H  68.0627 -28.6108 4.9789 0
M  V30 3245 H  68.8243 -29.9740 5.8325 0
M  V30 3246 H  68.9097 -29.8762 4.0576 0
M  V30 3247 H  65.2829 -28.3111 2.6844 0
M  V30 3248 H  65.2205 -28.3279 4.4628 0
M  V30 3249 H  66.7459 -27.9460 3.6295 0
M  V30 3250 H  69.4157 -33.1469 5.5757 0
M  V30 3251 H  68.1821 -34.0397 8.1076 0
M  V30 3252 H  70.0792 -35.5964 8.2255 0
M  V30 3253 H  70.8181 -34.8685 6.8384 0
M  V30 3254 H  68.7249 -35.6598 5.0276 0
M  V30 3255 H  68.6842 -33.1296 9.9921 0
M  V30 3256 H  71.1490 -31.5000 10.1983 0
M  V30 3257 H  69.6180 -29.7654 9.9767 0
M  V30 3258 H  69.6510 -29.9796 11.6986 0
M  V30 3259 H  67.5666 -31.2070 11.6853 0
M  V30 3260 H  67.5891 -31.3659 9.9572 0
M  V30 3261 H  64.5304 -28.9906 10.4575 0
M  V30 3262 H  65.1359 -30.4791 9.6927 0
M  V30 3263 H  65.0242 -30.3715 11.4656 0
M  V30 3264 H  71.4295 -30.9047 12.6396 0
M  V30 3265 H  71.6262 -33.4528 13.9985 0
M  V30 3266 H  73.3052 -31.6638 14.2963 0
M  V30 3267 H  72.6717 -32.2317 15.7931 0
M  V30 3268 H  71.0022 -30.2158 15.6217 0
M  V30 3269 H  72.1057 -29.6071 14.4093 0
M  V30 3270 H  70.5334 -34.2423 15.7604 0
M  V30 3271 H  67.7809 -33.3310 16.0102 0
M  V30 3272 H  69.4003 -35.5376 17.3176 0
M  V30 3273 H  68.2203 -35.7059 16.0593 0
M  V30 3274 H  68.4093 -36.1333 19.6582 0
M  V30 3275 H  64.2903 -35.1898 18.8396 0
M  V30 3276 H  67.0512 -31.8324 17.3793 0
M  V30 3277 H  68.6812 -31.1608 19.7772 0
M  V30 3278 H  67.3457 -29.0834 19.8348 0
M  V30 3279 H  66.4128 -29.6073 18.4787 0
M  V30 3280 H  67.9472 -28.1741 17.4729 0
M  V30 3281 H  68.6658 -29.7209 17.1779 0
M  V30 3282 H  70.1487 -26.6250 20.2850 0
M  V30 3283 H  68.9053 -26.3322 19.0460 0
M  V30 3284 H  68.5552 -27.4053 20.4218 0
M  V30 3285 H  68.0739 -32.4387 21.4383 0
M  V30 3286 H  65.5346 -33.7720 21.4466 0
M  V30 3287 H  67.5566 -34.7601 22.4203 0
M  V30 3288 H  66.2502 -34.6990 23.5758 0
M  V30 3289 H  66.2098 -30.5560 22.2884 0
M  V30 3290 H  65.1460 -29.1214 23.8182 0
M  V30 3291 H  64.2450 -30.4690 24.4703 0
M  V30 3292 H  64.3969 -29.9279 20.9866 0
M  V30 3293 H  61.4985 -29.4239 20.9642 0
M  V30 3294 H  62.5120 -29.7819 19.5828 0
M  V30 3295 H  60.7100 -27.8568 19.2989 0
M  V30 3296 H  62.3495 -25.4265 19.0585 0
M  V30 3297 H  60.9207 -26.2309 17.1623 0
M  V30 3298 H  60.5693 -24.5790 17.6619 0
M  V30 3299 H  59.0096 -26.8793 17.8940 0
M  V30 3300 H  61.7726 -23.4019 19.9042 0
M  V30 3301 H  60.7698 -23.4716 22.5602 0
M  V30 3302 H  60.5814 -20.9291 22.2290 0
M  V30 3303 H  61.1122 -21.1684 20.6194 0
M  V30 3304 H  63.2595 -22.0031 21.3171 0
M  V30 3305 H  64.1249 -20.0968 22.6179 0
M  V30 3306 H  63.0054 -19.5741 21.3370 0
M  V30 3307 H  62.4578 -19.6290 23.0295 0
M  V30 3308 H  63.8555 -22.3018 23.6858 0
M  V30 3309 H  62.1765 -21.9353 24.1484 0
M  V30 3310 H  62.5379 -23.3902 23.1892 0
M  V30 3311 H  59.0171 -23.4288 19.5431 0
M  V30 3312 H  56.5828 -22.3226 20.5782 0
M  V30 3313 H  57.2077 -24.2629 18.3425 0
M  V30 3314 H  56.7904 -22.5714 18.2172 0
M  V30 3315 H  57.7278 -25.7430 20.3304 0
M  V30 3316 H  55.4838 -26.8061 21.7479 0
M  V30 3317 H  56.9835 -28.7853 22.1155 0
M  V30 3318 H  58.3151 -27.8809 21.4849 0
M  V30 3319 H  56.8336 -27.5554 19.3511 0
M  V30 3320 H  55.8559 -28.8440 20.0080 0
M  V30 3321 H  57.8863 -31.2270 18.4601 0
M  V30 3322 H  56.2868 -30.6085 18.8052 0
M  V30 3323 H  58.7304 -25.7225 22.8732 0
M  V30 3324 H  58.3689 -26.5040 25.5737 0
M  V30 3325 H  59.9322 -24.1408 24.4830 0
M  V30 3326 H  61.2880 -24.3841 26.5257 0
M  V30 3327 H  59.5933 -23.9892 26.8987 0
M  V30 3328 H  60.1838 -25.6558 27.1008 0
M  V30 3329 H  61.8511 -25.6869 24.5066 0
M  V30 3330 H  60.7695 -27.0127 24.9959 0
M  V30 3331 H  60.5673 -26.2404 23.4054 0
M  V30 3332 H  57.2793 -23.5942 23.8157 0
M  V30 3333 H  56.4709 -22.1341 26.1240 0
M  V30 3334 H  55.3532 -22.1041 23.2985 0
M  V30 3335 H  56.6847 -21.1785 23.8397 0
M  V30 3336 H  53.8298 -20.9071 24.8454 0
M  V30 3337 H  54.6410 -18.9276 26.0639 0
M  V30 3338 H  55.4221 -20.4226 26.6314 0
M  V30 3339 H  56.3055 -19.3078 25.5618 0
M  V30 3340 H  53.9034 -18.7157 23.7186 0
M  V30 3341 H  55.5378 -19.0846 23.1190 0
M  V30 3342 H  54.1499 -20.0564 22.5745 0
M  V30 3343 H  54.6474 -24.4498 24.0440 0
M  V30 3344 H  52.1993 -24.1918 25.4836 0
M  V30 3345 H  51.7093 -26.4868 24.5371 0
M  V30 3346 H  53.3340 -26.5553 23.9430 0
M  V30 3347 H  52.8486 -24.3841 22.6597 0
M  V30 3348 H  51.1655 -24.5981 23.1101 0
M  V30 3349 H  51.1225 -26.8048 21.9948 0
M  V30 3350 H  52.8276 -26.6479 21.5876 0
M  V30 3351 H  52.2439 -24.5297 20.3123 0
M  V30 3352 H  50.5510 -24.8849 20.5993 0
M  V30 3353 H  50.8459 -26.9757 19.4323 0
M  V30 3354 H  51.2702 -25.7067 18.4685 0
M  V30 3355 H  52.4380 -26.6415 19.1624 0
M  V30 3356 H  55.0014 -26.4026 25.9766 0
M  V30 3357 H  53.7334 -27.8338 28.1124 0
M  V30 3358 H  56.1049 -28.5063 28.6886 0
M  V30 3359 H  56.6818 -27.4143 27.4886 0
M  V30 3360 H  55.2342 -28.7130 25.7842 0
M  V30 3361 H  55.0372 -29.9247 27.0558 0
M  V30 3362 H  57.5546 -30.0335 27.2424 0
M  V30 3363 H  57.6645 -28.9581 25.8627 0
M  V30 3364 H  57.9065 -31.1631 24.9889 0
M  V30 3365 H  56.2868 -30.6497 24.5477 0
M  V30 3366 H  56.8095 -32.2225 26.9791 0
M  V30 3367 H  55.3659 -31.9771 26.2207 0
M  V30 3368 H  56.5142 -32.9303 25.5193 0
M  V30 3369 H  55.2623 -24.6803 27.9973 0
M  V30 3370 H  55.4776 -24.7007 30.9533 0
M  V30 3371 H  56.9763 -22.7495 30.6615 0
M  V30 3372 H  57.5669 -24.1874 29.7949 0
M  V30 3373 H  56.7730 -22.8714 28.8977 0
M  V30 3374 H  53.5273 -23.3738 28.4064 0
M  V30 3375 H  52.0620 -21.7681 30.3338 0
M  V30 3376 H  51.7187 -21.9268 28.6211 0
M  V30 3377 H  54.0638 -20.4283 30.8991 0
M  V30 3378 H  54.7124 -18.4353 28.7941 0
M  V30 3379 H  54.7890 -16.6627 30.3822 0
M  V30 3380 H  54.7412 -17.7274 31.7346 0
M  V30 3381 H  52.4149 -18.1286 31.5290 0
M  V30 3382 H  52.3782 -17.6020 29.8486 0
M  V30 3383 H  51.4184 -15.9659 31.5689 0
M  V30 3384 H  52.5702 -15.3103 30.4320 0
M  V30 3385 H  54.1781 -15.1121 32.1206 0
M  V30 3386 H  51.5578 -16.2636 34.9863 0
M  V30 3387 H  51.1803 -16.5306 33.2991 0
M  V30 3388 H  53.5315 -15.2612 35.5773 0
M  V30 3389 H  54.6658 -14.7605 34.3432 0
M  V30 3390 H  56.8646 -17.5600 28.9869 0
M  V30 3391 H  58.7455 -19.4326 30.3350 0
M  V30 3392 H  59.1973 -17.6917 27.8793 0
M  V30 3393 H  57.7311 -19.5611 27.3531 0
M  V30 3394 H  58.7368 -20.6757 28.2165 0
M  V30 3395 H  61.3422 -18.8956 27.7158 0
M  V30 3396 H  61.2221 -17.9760 29.2348 0
M  V30 3397 H  60.9817 -19.7394 29.2407 0
M  V30 3398 H  59.0842 -20.8865 25.8030 0
M  V30 3399 H  59.5417 -19.1697 25.7015 0
M  V30 3400 H  60.5751 -20.3150 26.5889 0
M  V30 3401 H  59.4800 -15.9652 32.9096 0
M  V30 3402 H  60.8325 -16.7656 34.5794 0
M  V30 3403 H  62.1786 -17.1613 33.4078 0
M  V30 3404 H  59.7220 -18.7274 34.1381 0
M  V30 3405 H  61.4435 -19.2822 33.9056 0
M  V30 3406 H  61.2903 -19.1625 31.6190 0
M  V30 3407 H  59.5446 -19.6151 32.0457 0
M  V30 3408 H  60.5890 -14.0104 32.9782 0
M  V30 3409 H  61.8040 -13.1195 30.5838 0
M  V30 3410 H  61.8462 -12.0317 33.4121 0
M  V30 3411 H  60.7895 -11.5669 32.1348 0
M  V30 3412 H  62.6845 -10.5861 30.8721 0
M  V30 3413 H  63.7962 -11.1103 32.1161 0
M  V30 3414 H  63.2870 -14.3576 33.6126 0
M  V30 3415 H  65.9675 -13.7566 32.9803 0
M  V30 3416 H  66.5629 -15.5877 34.4969 0
M  V30 3417 H  64.9857 -16.2734 34.3696 0
M  V30 3418 H  64.4441 -15.1064 36.2167 0
M  V30 3419 H  64.4155 -13.6804 35.2110 0
M  V30 3420 H  66.6351 -12.6431 37.8789 0
M  V30 3421 H  64.9378 -12.8329 37.5005 0
M  V30 3422 H  63.9074 -16.4612 31.8614 0
M  V30 3423 H  66.1575 -17.7840 30.5795 0
M  V30 3424 H  63.1630 -18.2135 30.3527 0
M  V30 3425 H  63.5002 -20.0694 31.8677 0
M  V30 3426 H  64.0987 -18.6208 32.6031 0
M  V30 3427 H  63.7481 -20.3865 29.3484 0
M  V30 3428 H  64.3112 -19.0239 28.3518 0
M  V30 3429 H  65.4666 -19.9243 29.3625 0
M  V30 3430 H  65.6329 -20.4844 32.9874 0
M  V30 3431 H  65.8042 -20.7279 31.2328 0
M  V30 3432 H  66.4194 -19.2388 31.9888 0
M  V30 3433 H  63.4275 -15.7152 29.4770 0
M  V30 3434 H  64.0424 -15.9479 26.7073 0
M  V30 3435 H  62.8176 -13.7464 26.5158 0
M  V30 3436 H  62.7655 -13.6509 28.2298 0
M  V30 3437 H  61.4382 -15.7308 28.3569 0
M  V30 3438 H  59.3690 -14.8761 27.3350 0
M  V30 3439 H  60.2682 -13.5955 28.1828 0
M  V30 3440 H  60.3218 -13.6938 26.4067 0
M  V30 3441 H  60.5633 -16.7622 26.2990 0
M  V30 3442 H  61.5766 -15.6680 25.3280 0
M  V30 3443 H  62.3369 -16.8707 26.3969 0
M  V30 3444 H  65.5534 -14.0169 29.2657 0
M  V30 3445 H  67.5436 -12.8111 29.1623 0
M  V30 3446 H  67.0092 -12.2327 27.5977 0
M  V30 3447 H  67.9393 -15.5064 28.8186 0
M  V30 3448 H  70.3602 -15.6408 27.3249 0
M  V30 3449 H  70.1679 -18.0955 27.6410 0
M  V30 3450 H  68.5266 -17.9237 28.1439 0
M  V30 3451 H  69.9194 -18.1822 30.1067 0
M  V30 3452 H  69.2660 -16.5477 30.1020 0
M  V30 3453 H  71.3857 -15.7009 29.1318 0
M  V30 3454 H  72.0398 -17.3365 29.1317 0
M  V30 3455 H  71.7910 -17.4391 31.5966 0
M  V30 3456 H  71.1227 -15.8157 31.6029 0
M  V30 3457 H  73.2112 -15.0101 30.6987 0
M  V30 3458 H  73.4632 -15.8035 32.1222 0
M  V30 3459 H  73.8389 -16.5350 30.6929 0
M  V30 3460 H  67.0045 -16.6203 26.4754 0
M  V30 3461 H  67.6945 -17.7595 23.9576 0
M  V30 3462 H  65.1292 -16.4242 24.8789 0
M  V30 3463 H  64.0527 -17.6406 23.0254 0
M  V30 3464 H  65.2485 -16.4618 22.4357 0
M  V30 3465 H  65.6495 -18.1954 22.4688 0
M  V30 3466 H  64.3640 -18.7414 25.2162 0
M  V30 3467 H  65.9720 -19.3365 24.7396 0
M  V30 3468 H  65.7857 -18.3625 26.2174 0
M  V30 3469 H  66.8838 -14.3879 24.8925 0
M  V30 3470 H  66.8886 -13.3736 22.2280 0
M  V30 3471 H  67.3014 -11.1651 23.3045 0
M  V30 3472 H  67.5981 -11.9859 24.8369 0
M  V30 3473 H  65.4696 -12.7149 24.8342 0
M  V30 3474 H  69.5531 -13.7404 24.6201 0
M  V30 3475 H  71.5373 -12.4756 23.0262 0
M  V30 3476 H  71.7819 -14.7171 25.0580 0
M  V30 3477 H  70.8188 -12.5938 25.9004 0
M  V30 3478 H  72.1690 -11.7086 25.2725 0
M  V30 3479 H  74.1613 -14.0881 25.1993 0
M  V30 3480 H  73.7333 -14.6962 23.5825 0
M  V30 3481 H  73.9349 -12.9486 23.8513 0
M  V30 3482 H  72.4258 -12.0910 27.6755 0
M  V30 3483 H  72.3202 -13.8497 27.4240 0
M  V30 3484 H  73.7074 -12.9402 26.7791 0
M  V30 3485 H  70.4640 -15.9069 23.1422 0
M  V30 3486 H  72.3875 -16.8301 21.2527 0
M  V30 3487 H  70.8713 -18.7613 20.9657 0
M  V30 3488 H  71.1064 -18.3507 22.6813 0
M  V30 3489 H  69.6010 -17.8863 21.8535 0
M  V30 3490 H  68.9839 -15.7166 20.7718 0
M  V30 3491 H  69.0147 -16.1441 17.9561 0
M  V30 3492 H  67.3999 -14.2431 19.6827 0
M  V30 3493 H  65.8821 -14.0230 17.7510 0
M  V30 3494 H  67.4991 -13.3706 17.3949 0
M  V30 3495 H  67.0204 -14.9608 16.7551 0
M  V30 3496 H  65.6177 -15.9112 19.3286 0
M  V30 3497 H  66.7489 -16.9129 18.3883 0
M  V30 3498 H  67.0423 -16.6263 20.1201 0
M  V30 3499 H  69.9225 -13.2801 19.9290 0
M  V30 3500 H  70.3564 -11.5674 17.6878 0
M  V30 3501 H  71.4946 -11.5807 20.4925 0
M  V30 3502 H  69.1158 -11.1156 20.3618 0
M  V30 3503 H  69.3429 -9.9793 19.0731 0
M  V30 3504 H  72.3103 -9.2997 20.0418 0
M  V30 3505 H  73.1241 -10.5079 19.0195 0
M  V30 3506 H  71.8461 -9.4771 18.3330 0
M  V30 3507 H  68.9746 -8.8179 21.1975 0
M  V30 3508 H  70.3789 -9.6450 21.9123 0
M  V30 3509 H  70.6121 -8.4782 20.5890 0
M  V30 3510 H  72.5621 -13.8219 19.4164 0
M  V30 3511 H  74.8205 -13.0639 17.7818 0
M  V30 3512 H  75.8068 -15.2225 18.6807 0
M  V30 3513 H  74.3038 -15.5256 19.4812 0
M  V30 3514 H  74.5353 -13.5318 20.8624 0
M  V30 3515 H  75.9360 -12.9993 19.9379 0
M  V30 3516 H  77.1262 -15.1101 20.6453 0
M  V30 3517 H  75.7518 -15.4883 21.6765 0
M  V30 3518 H  76.0874 -13.4106 22.9452 0
M  V30 3519 H  77.3918 -12.9332 21.8715 0
M  V30 3520 H  77.9014 -14.1215 24.0880 0
M  V30 3521 H  77.5735 -15.5024 23.2485 0
M  V30 3522 H  78.7825 -14.4997 22.7464 0
M  V30 3523 H  72.3362 -15.6330 17.5409 0
M  V30 3524 H  71.8060 -16.9788 15.7160 0
M  V30 3525 H  73.5190 -17.0329 15.3645 0
M  V30 3526 H  71.0739 -14.3721 15.3206 0
M  V30 3527 H  71.0337 -14.1147 12.4908 0
M  V30 3528 H  70.2342 -11.7717 12.9540 0
M  V30 3529 H  70.6233 -11.9567 14.5925 0
M  V30 3530 H  68.9473 -13.7577 14.8560 0
M  V30 3531 H  66.9388 -12.3701 14.5360 0
M  V30 3532 H  68.2834 -11.4396 15.2383 0
M  V30 3533 H  67.8782 -11.2555 13.5152 0
M  V30 3534 H  67.3806 -14.2569 13.0191 0
M  V30 3535 H  68.3392 -13.2275 11.9288 0
M  V30 3536 H  69.0511 -14.7111 12.6065 0
M  V30 3537 H  73.2562 -12.7534 14.9361 0
M  V30 3538 H  74.5690 -10.9618 13.1314 0
M  V30 3539 H  75.5146 -12.3214 15.6727 0
M  V30 3540 H  73.9213 -10.8509 16.1209 0
M  V30 3541 H  77.3042 -10.6243 15.6988 0
M  V30 3542 H  77.4442 -11.6825 14.2748 0
M  V30 3543 H  76.7772 -10.0416 14.1020 0
M  V30 3544 H  75.3233 -14.3517 14.1079 0
M  V30 3545 H  77.6821 -14.5529 12.5362 0
M  V30 3546 H  75.6692 -16.6423 13.4176 0
M  V30 3547 H  77.1648 -16.2297 14.1966 0
M  V30 3548 H  79.3613 -16.8545 13.1051 0
M  V30 3549 H  75.6232 -18.1602 11.5113 0
M  V30 3550 H  80.5155 -18.5640 11.7964 0
M  V30 3551 H  76.7788 -19.8639 10.1982 0
M  V30 3552 H  80.3037 -20.2703 10.3936 0
M  V30 3553 H  74.2408 -15.0099 11.6486 0
M  V30 3554 H  74.9064 -15.9812 9.0051 0
M  V30 3555 H  72.4808 -15.4994 8.5327 0
M  V30 3556 H  72.3296 -14.7714 10.0650 0
M  V30 3557 H  72.8331 -16.8972 11.2039 0
M  V30 3558 H  70.8139 -18.1366 10.5272 0
M  V30 3559 H  70.5111 -16.3865 10.6387 0
M  V30 3560 H  70.7140 -17.1548 9.0463 0
M  V30 3561 H  73.0465 -18.9792 9.9060 0
M  V30 3562 H  73.0476 -18.0323 8.3992 0
M  V30 3563 H  74.3763 -17.8458 9.5682 0
M  V30 3564 H  74.3488 -12.7509 10.4041 0
M  V30 3565 H  74.0308 -11.5029 7.8092 0
M  V30 3566 H  74.5049 -10.4654 10.6096 0
M  V30 3567 H  73.0431 -10.4312 9.7096 0
M  V30 3568 H  75.5370 -8.8020 9.0937 0
M  V30 3569 H  74.0551 -8.2016 9.8133 0
M  V30 3570 H  72.9545 -9.2077 7.6065 0
M  V30 3571 H  74.5883 -9.0342 6.9750 0
M  V30 3572 H  73.7548 -6.6555 8.3358 0
M  V30 3573 H  72.9805 -7.0393 4.3795 0
M  V30 3574 H  73.3764 -8.4521 5.3321 0
M  V30 3575 H  72.9005 -4.9721 5.3696 0
M  V30 3576 H  73.2354 -4.8054 7.0786 0
M  V30 3577 H  76.8011 -11.9678 10.0466 0
M  V30 3578 H  78.4711 -10.2623 8.3339 0
M  V30 3579 H  80.2092 -10.6761 10.0560 0
M  V30 3580 H  79.1863 -11.8192 10.8466 0
M  V30 3581 H  77.5550 -10.0793 11.4139 0
M  V30 3582 H  78.4207 -8.9004 10.4592 0
M  V30 3583 H  78.5384 -13.7078 9.4562 0
M  V30 3584 H  80.9127 -14.1886 7.8653 0
M  V30 3585 H  79.9465 -16.6827 8.5147 0
M  V30 3586 H  79.2125 -15.7212 9.7462 0
M  V30 3587 H  82.1942 -15.7827 9.1374 0
M  V30 3588 H  81.4049 -16.6435 10.4471 0
M  V30 3589 H  80.6505 -14.4827 11.4160 0
M  V30 3590 H  81.4490 -13.6197 10.1018 0
M  V30 3591 H  83.6310 -14.5394 10.7968 0
M  V30 3592 H  82.8587 -15.4710 12.0647 0
M  V30 3593 H  82.0043 -13.1512 12.7906 0
M  V30 3594 H  83.5354 -13.6229 13.1813 0
M  V30 3595 H  83.2874 -12.5901 11.9200 0
M  V30 3596 H  77.5264 -14.2286 7.0710 0
M  V30 3597 H  78.2598 -15.6223 4.5612 0
M  V30 3598 H  76.1697 -16.9622 4.6459 0
M  V30 3599 H  75.8136 -16.3341 6.2210 0
M  V30 3600 H  77.1112 -17.5055 8.2573 0
M  V30 3601 H  79.4338 -20.2038 5.8372 0
M  V30 3602 H  76.7752 -12.8997 5.9454 0
M  V30 3603 H  75.4290 -11.2881 5.1161 0
M  V30 3604 H  75.5521 -10.8474 2.6751 0
M  V30 3605 H  76.3058 -12.3881 2.4224 0
M  V30 3606 H  78.2154 -11.6771 3.9000 0
M  V30 3607 H  77.4600 -10.0982 4.0658 0
M  V30 3608 H  77.5928 -9.7627 1.6167 0
M  V30 3609 H  78.3185 -11.3570 1.4306 0
M  V30 3610 H  80.2210 -10.6394 2.8786 0
M  V30 3611 H  79.5039 -9.0442 3.0165 0
M  V30 3612 H  79.7055 -8.8049 0.6261 0
M  V30 3613 H  81.1767 -9.1091 1.3061 0
M  V30 3614 H  80.3796 -10.3043 0.4965 0
M  V30 3615 H  74.3086 -14.1195 5.4726 0
M  V30 3616 H  71.8920 -13.7772 3.7837 0
M  V30 3617 H  71.3461 -16.1106 4.4730 0
M  V30 3618 H  72.5347 -16.2476 6.5748 0
M  V30 3619 H  74.0581 -15.9252 5.8170 0
M  V30 3620 H  73.0357 -17.2146 3.0579 0
M  V30 3621 H  72.4713 -15.6858 2.3429 0
M  V30 3622 H  74.0559 -15.7593 3.1495 0
M  V30 3623 H  73.8402 -18.3023 6.3464 0
M  V30 3624 H  72.3606 -18.4033 5.3626 0
M  V30 3625 H  73.9262 -18.0720 4.5838 0
M  V30 3626 H  69.8308 -13.9445 4.8054 0
M  V30 3627 H  69.8984 -13.2831 7.7031 0
M  V30 3628 H  67.9139 -11.7331 7.1509 0
M  V30 3629 H  68.4060 -11.8511 5.4832 0
M  V30 3630 H  70.7923 -11.1766 6.4519 0
M  V30 3631 H  69.8687 -10.5876 7.7982 0
M  V30 3632 H  69.3629 -9.0657 3.4521 0
M  V30 3633 H  70.5581 -10.2844 3.9556 0
M  V30 3634 H  68.8224 -10.6767 3.9809 0
M  V30 3635 H  68.0230 -13.8336 8.8917 0
M  V30 3636 H  67.3531 -16.5147 8.2970 0
M  V30 3637 H  65.7281 -14.8068 10.1808 0
M  V30 3638 H  67.3878 -15.1484 10.5474 0
M  V30 3639 H  67.7549 -17.4369 11.7829 0
M  V30 3640 H  63.9643 -19.2305 10.8100 0
M  V30 3641 H  65.0657 -13.7068 8.4462 0
M  V30 3642 H  63.2816 -13.1728 7.2013 0
M  V30 3643 H  62.8081 -14.2714 5.0456 0
M  V30 3644 H  63.9736 -15.5066 5.3859 0
M  V30 3645 H  65.7537 -13.6930 5.5233 0
M  V30 3646 H  64.5420 -12.5509 4.9745 0
M  V30 3647 H  64.2227 -13.8301 2.8990 0
M  V30 3648 H  65.3497 -15.0589 3.4553 0
M  V30 3649 H  67.1479 -13.6164 3.0926 0
M  V30 3650 H  64.7715 -10.7294 1.5383 0
M  V30 3651 H  64.0619 -12.0708 2.4085 0
M  V30 3652 H  67.0476 -10.6045 1.2766 0
M  V30 3653 H  68.0762 -11.8507 1.9469 0
M  V30 3654 H  63.4972 -15.8233 9.1158 0
M  V30 3655 H  60.5908 -16.0132 9.1810 0
M  V30 3656 H  62.1868 -18.5346 8.6054 0
M  V30 3657 H  61.2517 -17.6793 7.4047 0
M  V30 3658 H  61.9733 -14.9134 11.1303 0
M  V30 3659 H  62.8428 -16.9302 13.0747 0
M  V30 3660 H  62.6284 -13.9047 13.2393 0
M  V30 3661 H  63.9419 -14.1244 15.3138 0
M  V30 3662 H  62.3594 -14.9276 15.4464 0
M  V30 3663 H  63.8304 -15.8963 15.1910 0
M  V30 3664 H  65.0875 -13.9836 13.1277 0
M  V30 3665 H  65.0170 -15.7507 12.9283 0
M  V30 3666 H  64.3377 -14.6860 11.6745 0
M  V30 3667 H  61.5191 -17.8921 14.4597 0
M  V30 3668 H  59.4232 -16.4610 15.8183 0
M  V30 3669 H  58.0813 -16.8344 13.8543 0
M  V30 3670 H  57.5499 -17.9440 15.0616 0
M  V30 3671 H  58.6808 -19.8058 13.9970 0
M  V30 3672 H  59.5297 -18.7248 12.8913 0
M  V30 3673 H  57.2932 -18.0049 11.9727 0
M  V30 3674 H  56.5260 -19.2107 12.9949 0
M  V30 3675 H  57.6897 -21.0169 11.8608 0
M  V30 3676 H  58.6903 -19.8871 10.9709 0
M  V30 3677 H  56.7446 -20.8317 9.7539 0
M  V30 3678 H  55.7574 -19.9203 10.7100 0
M  V30 3679 H  56.8512 -19.1865 9.7179 0
M  V30 3680 H  60.2219 -19.4409 18.8473 0
M  V30 3681 H  58.3997 -19.8060 20.2009 0
M  V30 3682 H  57.3790 -20.4207 18.8120 0
M  V30 3683 H  58.0636 -17.6112 19.6162 0
M  V30 3684 H  56.4629 -18.3353 19.1319 0
M  V30 3685 H  57.0195 -18.3661 16.9096 0
M  V30 3686 H  57.9942 -16.8919 17.4562 0
M  V30 3687 H  58.1989 -20.7786 16.1894 0
M  V30 3688 H  58.8543 -23.5076 16.7660 0
M  V30 3689 H  56.9282 -23.0669 15.4313 0
M  V30 3690 H  58.0856 -23.8983 14.3934 0
M  V30 3691 H  57.1580 -22.0467 13.3731 0
M  V30 3692 H  60.7950 -20.9875 15.3895 0
M  V30 3693 H  62.5132 -23.0093 14.0631 0
M  V30 3694 H  63.5609 -20.9510 12.9863 0
M  V30 3695 H  62.2657 -20.0105 13.6859 0
M  V30 3696 H  60.6293 -20.5552 10.5957 0
M  V30 3697 H  61.5195 -19.4257 11.5917 0
M  V30 3698 H  62.3613 -21.4768 17.0349 0
M  V30 3699 H  65.3163 -21.3763 17.2714 0
M  V30 3700 H  63.2034 -20.6519 19.3308 0
M  V30 3701 H  63.0470 -19.1764 17.3594 0
M  V30 3702 H  64.7534 -18.8772 17.4076 0
M  V30 3703 H  65.0805 -19.5071 20.4470 0
M  V30 3704 H  65.3831 -21.2523 20.2741 0
M  V30 3705 H  66.1862 -20.0976 19.1837 0
M  V30 3706 H  63.5180 -17.0098 18.3901 0
M  V30 3707 H  62.7729 -18.1058 19.5778 0
M  V30 3708 H  64.5252 -17.7985 19.6273 0
M  V30 3709 H  66.2579 -23.2527 17.7529 0
M  V30 3710 H  64.6282 -25.3245 19.1097 0
M  V30 3711 H  66.8061 -26.6748 18.2857 0
M  V30 3712 H  66.9114 -25.3870 17.1613 0
M  V30 3713 H  64.7062 -27.4252 17.4635 0
M  V30 3714 H  63.3543 -26.1742 15.8341 0
M  V30 3715 H  63.5653 -25.2736 17.3545 0
M  V30 3716 H  64.5131 -24.8260 15.9163 0
M  V30 3717 H  65.0917 -27.7260 15.0462 0
M  V30 3718 H  66.3347 -26.4531 15.0922 0
M  V30 3719 H  66.5799 -27.9692 15.9914 0
M  V30 3720 H  65.5774 -26.6419 20.7377 0
M  V30 3721 H  67.9556 -25.5789 22.1069 0
M  V30 3722 H  66.8265 -25.4860 24.2759 0
M  V30 3723 H  65.4461 -23.4758 23.9154 0
M  V30 3724 H  66.9449 -23.4265 22.9571 0
M  V30 3725 H  65.3990 -23.8265 22.1713 0
M  V30 3726 H  64.3725 -25.6365 24.4398 0
M  V30 3727 H  64.2873 -26.0603 22.7135 0
M  V30 3728 H  65.0883 -27.1596 23.8611 0
M  V30 3729 H  68.6528 -27.0734 23.8431 0
M  V30 3730 H  67.6539 -29.8297 23.5392 0
M  V30 3731 H  69.4042 -29.6538 21.8076 0
M  V30 3732 H  69.8659 -30.7526 23.0818 0
M  V30 3733 H  72.9771 -29.0500 22.8911 0
M  V30 3734 H  72.0765 -30.4692 22.4063 0
M  V30 3735 H  68.9429 -31.3070 25.0693 0
M  V30 3736 H  68.4790 -30.2358 27.6772 0
M  V30 3737 H  68.3128 -32.6549 27.0271 0
M  V30 3738 H  69.2144 -32.3606 28.5121 0
M  V30 3739 H  70.0821 -33.3776 26.0982 0
M  V30 3740 H  71.3851 -30.3376 25.6776 0
M  V30 3741 H  73.1830 -29.8535 27.8945 0
M  V30 3742 H  74.7530 -29.1840 25.9641 0
M  V30 3743 H  73.4606 -29.6240 24.8889 0
M  V30 3744 H  73.5100 -31.8682 26.4268 0
M  V30 3745 H  75.1772 -31.3693 26.6054 0
M  V30 3746 H  73.7560 -31.7652 23.9437 0
M  V30 3747 H  74.8111 -32.9373 24.6933 0
M  V30 3748 H  76.2101 -30.4821 24.4949 0
M  V30 3749 H  77.6888 -31.2085 21.3830 0
M  V30 3750 H  77.7537 -30.1955 22.8078 0
M  V30 3751 H  76.0714 -32.8220 21.1913 0
M  V30 3752 H  74.8981 -33.0438 22.4698 0
M  V30 3753 H  70.7631 -27.8983 26.9772 0
M  V30 3754 H  72.1039 -25.6067 28.1517 0
M  V30 3755 H  70.4388 -25.7420 27.7842 0
M  V30 3756 H  71.7524 -26.6111 24.8772 0
M  V30 3757 H  72.7314 -23.9930 24.0516 0
M  V30 3758 H  73.1018 -24.9961 21.9044 0
M  V30 3759 H  71.9937 -26.2815 22.2118 0
M  V30 3760 H  73.4827 -27.3138 23.8256 0
M  V30 3761 H  74.5331 -25.9186 23.8381 0
M  V30 3762 H  71.8224 -22.6241 22.5005 0
M  V30 3763 H  68.9913 -23.1106 21.7566 0
M  V30 3764 H  70.1109 -20.3889 22.5068 0
M  V30 3765 H  69.9866 -21.9018 24.4917 0
M  V30 3766 H  68.3165 -22.2157 24.1514 0
M  V30 3767 H  67.7362 -19.7226 22.4623 0
M  V30 3768 H  68.2692 -20.3634 20.8899 0
M  V30 3769 H  67.2861 -21.3742 21.9757 0
M  V30 3770 H  68.5401 -20.5292 25.9116 0
M  V30 3771 H  69.4909 -19.4930 24.8211 0
M  V30 3772 H  67.7760 -19.8153 24.4716 0
M  V30 3773 H  68.9189 -23.2519 19.5944 0
M  V30 3774 H  71.0023 -21.7902 18.0503 0
M  V30 3775 H  71.2269 -23.7265 16.5694 0
M  V30 3776 H  70.0092 -24.6005 17.4393 0
M  V30 3777 H  71.4247 -24.7397 19.4275 0
M  V30 3778 H  72.6232 -23.6852 18.6944 0
M  V30 3779 H  72.9070 -25.3960 16.8554 0
M  V30 3780 H  71.8348 -26.4675 17.7582 0
M  V30 3781 H  73.3622 -26.4895 19.6565 0
M  V30 3782 H  74.3750 -25.2667 18.9188 0
M  V30 3783 H  74.8837 -26.8263 17.1529 0
M  V30 3784 H  75.2886 -27.4556 18.6223 0
M  V30 3785 H  73.9298 -27.9780 17.8477 0
M  V30 3786 H  70.4408 -21.1467 15.9608 0
M  V30 3787 H  67.5552 -20.8356 15.5213 0
M  V30 3788 H  68.4315 -19.5655 13.4501 0
M  V30 3789 H  70.0048 -19.7842 14.0709 0
M  V30 3790 H  69.8037 -18.0783 15.5173 0
M  V30 3791 H  68.0296 -16.4369 15.0463 0
M  V30 3792 H  68.7364 -17.0975 13.5525 0
M  V30 3793 H  67.1465 -17.6681 14.1127 0
M  V30 3794 H  67.9294 -17.8046 17.0908 0
M  V30 3795 H  67.0387 -19.0933 16.2464 0
M  V30 3796 H  68.5581 -19.4695 17.0933 0
M  V30 3797 H  66.6174 -21.2759 13.3907 0
M  V30 3798 H  67.8301 -23.4046 11.8189 0
M  V30 3799 H  65.4741 -24.0529 13.6331 0
M  V30 3800 H  67.0700 -24.6522 13.8441 0
M  V30 3801 H  65.5030 -26.7459 12.7580 0
M  V30 3802 H  66.3923 -24.1175 10.0791 0
M  V30 3803 H  65.0398 -23.6680 8.3242 0
M  V30 3804 H  62.7266 -22.9090 8.8070 0
M  V30 3805 H  63.1890 -22.5272 10.4437 0
M  V30 3806 H  67.0583 -21.7018 8.8657 0
M  V30 3807 H  65.7320 -19.1363 8.2839 0
M  V30 3808 H  67.5752 -18.9838 9.8172 0
M  V30 3809 H  68.0400 -18.2064 8.3439 0
M  V30 3810 H  68.7414 -20.9244 10.6309 0
M  V30 3811 H  69.6279 -19.3712 6.7590 0
M  V30 3812 H  70.7359 -22.3334 10.5220 0
M  V30 3813 H  71.6210 -20.7852 6.6487 0
M  V30 3814 H  72.1861 -22.2673 8.5335 0
M  V30 3815 H  66.1006 -17.8975 6.4289 0
M  V30 3816 H  65.8790 -17.7203 4.1623 0
M  V30 3817 H  65.8121 -19.4186 4.0543 0
M  V30 3818 H  67.4797 -20.5163 3.1115 0
M  V30 3819 H  69.8731 -18.8724 2.4807 0
M  V30 3820 H  70.0985 -20.8826 4.1574 0
M  V30 3821 H  70.6834 -22.9910 3.0194 0
M  V30 3822 H  68.9850 -22.5377 2.7417 0
M  V30 3823 H  70.1954 -22.2794 1.4629 0
M  V30 3824 H  72.4035 -21.2413 3.3587 0
M  V30 3825 H  71.9837 -20.4636 1.8139 0
M  V30 3826 H  71.9517 -19.5203 3.3227 0
M  V30 3827 H  67.3150 -20.8906 1.1824 0
M  V30 3828 H  68.7394 -20.9563 -1.4310 0
M  V30 3829 H  66.6071 -22.7604 -0.2424 0
M  V30 3830 H  68.2472 -23.1985 -0.7171 0
M  V30 3831 H  67.6409 -22.7080 -2.9016 0
M  V30 3832 H  68.1213 -19.2633 -2.6278 0
M  V30 3833 H  66.6939 -17.7548 -3.6838 0
M  V30 3834 H  65.7739 -17.7380 -2.2002 0
M  V30 3835 H  66.3665 -20.3962 -4.5679 0
M  V30 3836 H  63.8040 -20.1711 -5.7944 0
M  V30 3837 H  64.7923 -22.9012 -5.7942 0
M  V30 3838 H  66.1091 -21.8045 -6.0576 0
M  V30 3839 H  63.5375 -21.9394 -7.6742 0
M  V30 3840 H  65.1201 -22.4759 -8.1914 0
M  V30 3841 H  66.0685 -18.7969 -8.0980 0
M  V30 3842 H  66.5077 -20.1266 -7.0496 0
M  V30 3843 H  64.9101 -22.0582 -2.9541 0
M  V30 3844 H  62.5027 -23.5395 -2.6318 0
M  V30 3845 H  64.4516 -22.5307 -0.5317 0
M  V30 3846 H  64.6516 -23.9557 -1.4236 0
M  V30 3847 H  62.3788 -23.4393 0.5247 0
M  V30 3848 H  61.8569 -25.8292 0.2638 0
M  V30 3849 H  61.6667 -24.9388 -1.2653 0
M  V30 3850 H  63.1015 -25.9581 -1.0017 0
M  V30 3851 H  63.5200 -25.1119 1.9263 0
M  V30 3852 H  64.8390 -25.2007 0.7349 0
M  V30 3853 H  64.5431 -23.6875 1.6236 0
M  V30 3854 H  63.3515 -20.2038 -1.6642 0
M  V30 3855 H  60.9832 -19.8363 -0.0698 0
M  V30 3856 H  62.7713 -17.8291 -1.4823 0
M  V30 3857 H  63.8392 -19.2943 0.2545 0
M  V30 3858 H  62.6861 -18.7360 1.4186 0
M  V30 3859 H  61.7918 -16.1649 0.0499 0
M  V30 3860 H  60.5690 -16.8625 -1.0387 0
M  V30 3861 H  60.6600 -17.3972 0.6563 0
M  V30 3862 H  64.7981 -17.5270 1.6437 0
M  V30 3863 H  64.6884 -16.9854 -0.0480 0
M  V30 3864 H  63.5029 -16.4113 1.1488 0
M  V30 3865 H  61.7512 -19.1759 -3.5229 0
M  V30 3866 H  59.2605 -17.9406 -4.1178 0
M  V30 3867 H  59.8549 -19.0159 -6.4905 0
M  V30 3868 H  61.3880 -19.3291 -5.7169 0
M  V30 3869 H  60.2659 -21.3988 -4.3963 0
M  V30 3870 H  57.7388 -22.3068 -5.3371 0
M  V30 3871 H  58.4572 -24.5308 -4.5366 0
M  V30 3872 H  59.7534 -23.6929 -5.4228 0
M  V30 3873 H  59.7962 -23.7693 -3.6453 0
M  V30 3874 H  58.9465 -21.7566 -2.0080 0
M  V30 3875 H  56.6731 -22.9090 -0.7132 0
M  V30 3876 H  57.9411 -20.5762 0.6049 0
M  V30 3877 H  59.0669 -21.7773 0.0939 0
M  V30 3878 H  56.6123 -22.5406 1.6946 0
M  V30 3879 H  58.0775 -21.9593 2.4738 0
M  V30 3880 H  60.7038 -24.6241 1.1001 0
M  V30 3881 H  60.2152 -23.1270 0.2713 0
M  V30 3882 H  60.5051 -23.1181 2.0271 0
M  V30 3883 H  57.1277 -19.8201 -2.3517 0
M  V30 3884 H  55.2536 -18.2952 -0.8768 0
M  V30 3885 H  55.1590 -16.8371 -2.8706 0
M  V30 3886 H  56.8291 -17.2888 -2.4535 0
M  V30 3887 H  56.0049 -18.0865 -3.8142 0
M  V30 3888 H  54.7156 -20.7917 -3.3287 0
M  V30 3889 H  51.8373 -20.0959 -3.4059 0
M  V30 3890 H  53.4900 -22.1675 -4.8817 0
M  V30 3891 H  52.8317 -20.6858 -5.5370 0
M  V30 3892 H  49.4525 -22.3987 -4.9282 0
M  V30 3893 H  50.2554 -21.1568 -3.9936 0
M  V30 3894 H  51.5859 -20.4506 -1.1297 0
M  V30 3895 H  51.0756 -23.3149 -0.5678 0
M  V30 3896 H  51.8649 -23.0347 1.7586 0
M  V30 3897 H  53.1870 -22.7765 0.5956 0
M  V30 3898 H  52.4058 -21.3823 1.3787 0
M  V30 3899 H  49.5547 -23.5781 1.2561 0
M  V30 3900 H  47.3110 -21.8043 0.9249 0
M  V30 3901 H  46.1440 -23.2506 2.3187 0
M  V30 3902 H  47.5039 -23.5589 3.3443 0
M  V30 3903 H  48.4860 -25.6598 3.2128 0
M  V30 3904 H  46.5231 -24.1099 -0.2425 0
M  V30 3905 H  48.9040 -27.7639 2.0349 0
M  V30 3906 H  46.9472 -26.2157 -1.4234 0
M  V30 3907 H  48.1458 -28.0491 -0.2895 0
M  V30 3908 H  46.3270 -20.4306 2.4685 0
M  V30 3909 H  48.2048 -18.7127 3.7711 0
M  V30 3910 H  46.1566 -17.7605 3.0338 0
M  V30 3911 H  43.9536 -18.4814 3.8711 0
M  V30 3912 H  44.7984 -19.7979 3.0224 0
M  V30 3913 H  44.7369 -19.7810 4.8009 0
M  V30 3914 H  45.2357 -16.7556 5.0913 0
M  V30 3915 H  46.0650 -17.9952 6.0623 0
M  V30 3916 H  47.0140 -16.8157 5.1268 0
M  V30 3917 H  48.8985 -18.5404 5.8446 0
M  V30 3918 H  49.4844 -19.4030 7.9193 0
M  V30 3919 H  48.4484 -20.7946 7.6358 0
M  V30 3920 H  48.5175 -19.6354 10.0929 0
M  V30 3921 H  45.8576 -18.3204 10.2371 0
M  V30 3922 H  45.9064 -19.1698 12.6418 0
M  V30 3923 H  47.3733 -20.9535 12.9468 0
M  V30 3924 H  45.2341 -21.4487 11.9778 0
M  V30 3925 H  44.5696 -20.2330 10.8608 0
M  V30 3926 H  45.9807 -21.2054 10.3808 0
M  V30 3927 H  49.2553 -17.9090 11.1064 0
M  V30 3928 H  48.5928 -15.1731 11.9080 0
M  V30 3929 H  48.4505 -16.2038 14.0849 0
M  V30 3930 H  49.9019 -15.2870 14.0071 0
M  V30 3931 H  51.2684 -17.1282 14.1796 0
M  V30 3932 H  50.1680 -18.1671 13.2528 0
M  V30 3933 H  48.8586 -18.6667 15.1000 0
M  V30 3934 H  49.2066 -17.1613 15.9019 0
M  V30 3935 H  51.5752 -18.7712 15.7173 0
M  V30 3936 H  49.0927 -19.1973 18.8901 0
M  V30 3937 H  48.5222 -18.4197 17.4306 0
M  V30 3938 H  51.2452 -19.9737 19.0139 0
M  V30 3939 H  52.3246 -19.7913 17.6494 0
M  V30 3940 H  50.5472 -13.8398 12.0652 0
M  V30 3941 H  52.7923 -14.9552 10.4713 0
M  V30 3942 H  51.2293 -12.4106 9.8878 0
M  V30 3943 H  51.3660 -13.8310 8.8538 0
M  V30 3944 H  53.2523 -13.1421 8.1758 0
M  V30 3945 H  54.7451 -14.4048 11.2403 0
M  V30 3946 H  54.9282 -12.2080 13.2032 0
M  V30 3947 H  57.1788 -13.1115 13.6536 0
M  V30 3948 H  56.9988 -14.2726 12.3776 0
M  V30 3949 H  55.4431 -16.2110 12.6408 0
M  V30 3950 H  56.0032 -13.4051 15.8077 0
M  V30 3951 H  54.4094 -17.7713 14.2118 0
M  V30 3952 H  54.9755 -14.9708 17.3752 0
M  V30 3953 H  54.1238 -17.0020 17.6657 0
M  V30 3954 H  54.6957 -12.0555 10.0779 0
M  V30 3955 H  57.2415 -11.0887 9.1787 0
M  V30 3956 H  54.7299 -10.1205 7.8881 0
M  V30 3957 H  54.9088 -11.8337 7.9639 0
M  V30 3958 H  56.9626 -9.9382 6.7643 0
M  V30 3959 H  55.7824 -10.8504 5.8515 0
M  V30 3960 H  56.9124 -14.5750 6.8427 0
M  V30 3961 H  55.8276 -13.5429 7.8046 0
M  V30 3962 H  55.6559 -13.6081 6.0344 0
M  V30 3963 H  58.1019 -9.0756 9.0917 0
M  V30 3964 H  57.0200 -7.0764 10.8699 0
M  V30 3965 H  59.4052 -7.2188 10.6260 0
M  V30 3966 H  58.8905 -5.6715 9.9585 0
M  V30 3967 H  60.0874 -6.4019 8.3366 0
M  V30 3968 H  54.3264 -4.9481 8.2911 0
M  V30 3969 H  54.0086 -3.3640 9.9197 0
M  V30 3970 H  54.8852 -2.2740 8.7389 0
M  V30 3971 H  55.7411 -2.6099 11.2297 0
M  V30 3972 H  56.8925 -2.5410 9.8188 0
M  V30 3973 H  57.5709 -4.5235 10.7173 0
M  V30 3974 H  55.8868 -4.8925 11.3856 0
M  V30 3975 H  57.7078 -3.7350 7.9590 0
M  V30 3976 H  57.1730 -2.5176 5.4018 0
M  V30 3977 H  59.1422 -1.9577 6.8272 0
M  V30 3978 H  59.5305 -2.2509 5.1774 0
M  V30 3979 H  61.2053 -3.4672 6.1788 0
M  V30 3980 H  60.0145 -4.7282 6.0002 0
M  V30 3981 H  58.0887 -5.8285 6.3745 0
M  V30 3982 H  58.5575 -6.6716 3.6462 0
M  V30 3983 H  58.3594 -8.9678 4.5754 0
M  V30 3984 H  57.7904 -8.3269 6.0753 0
M  V30 3985 H  59.9385 -7.1563 6.4428 0
M  V30 3986 H  60.5215 -7.7120 4.8786 0
M  V30 3987 H  59.6695 -9.5633 7.1429 0
M  V30 3988 H  61.3282 -9.0856 6.8391 0
M  V30 3989 H  60.3499 -10.0794 4.4194 0
M  V30 3990 H  61.1997 -12.8985 7.1968 0
M  V30 3991 H  60.8968 -11.2477 7.6901 0
M  V30 3992 H  61.1148 -13.4680 4.9777 0
M  V30 3993 H  60.7469 -12.2523 3.7748 0
M  V30 3994 H  55.6630 -6.4483 5.7188 0
M  V30 3995 H  53.9962 -7.9826 3.9387 0
M  V30 3996 H  52.1170 -6.8089 5.1374 0
M  V30 3997 H  53.2368 -5.8040 5.9169 0
M  V30 3998 H  54.2847 -7.8080 7.0184 0
M  V30 3999 H  52.4330 -8.1881 8.5976 0
M  V30 4000 H  52.6019 -6.4674 8.1761 0
M  V30 4001 H  51.3030 -7.4394 7.4445 0
M  V30 4002 H  53.0460 -9.9338 6.9816 0
M  V30 4003 H  51.9416 -9.2635 5.7576 0
M  V30 4004 H  53.6626 -9.4984 5.3700 0
M  V30 4005 H  54.9298 -4.5401 4.0690 0
M  V30 4006 H  53.1708 -4.0113 1.7522 0
M  V30 4007 H  53.9550 -1.6055 2.1804 0
M  V30 4008 H  54.7344 -2.1825 3.6077 0
M  V30 4009 H  52.6599 -2.7979 4.6439 0
M  V30 4010 H  51.7811 -2.6812 3.1358 0
M  V30 4011 H  50.7951 0.5940 3.7979 0
M  V30 4012 H  50.4365 -0.9914 3.1511 0
M  V30 4013 H  56.5023 -4.7227 2.4060 0
M  V30 4014 H  58.0814 -3.2247 0.8591 0
M  V30 4015 H  57.1318 -3.9700 -0.3869 0
M  V30 4016 H  60.0360 -4.1550 1.0145 0
M  V30 4017 H  60.1831 -7.1164 0.8661 0
M  V30 4018 H  62.4087 -6.8015 -0.2949 0
M  V30 4019 H  62.6320 -4.5459 0.2024 0
M  V30 4020 H  61.4104 -6.4315 -2.5203 0
M  V30 4021 H  60.3834 -7.4889 -1.5232 0
M  V30 4022 H  59.9417 -5.7805 -1.7546 0
M  V30 4023 H  62.4446 -7.8286 1.6166 0
M  V30 4024 H  62.6917 -7.2729 4.3396 0
M  V30 4025 H  65.0738 -8.0597 2.6498 0
M  V30 4026 H  63.7293 -9.1392 2.7744 0
M  V30 4027 H  66.8491 -8.4485 4.5320 0
M  V30 4028 H  64.2565 -10.2990 7.4293 0
M  V30 4029 H  63.7898 -5.8496 5.5911 0
M  V30 4030 H  65.4291 -3.8094 4.1571 0
M  V30 4031 H  63.8733 -3.3864 6.7340 0
M  V30 4032 H  63.2114 -3.0266 5.1795 0
M  V30 4033 H  64.1671 -1.1576 3.7954 0
M  V30 4034 H  65.5990 -1.9474 7.7398 0
M  V30 4035 H  65.2175 1.0498 3.8594 0
M  V30 4036 H  66.6503 0.2569 7.7992 0
M  V30 4037 H  66.3061 2.5417 5.1086 0
M  V30 4038 H  66.9973 -5.7498 4.5917 0
M  V30 4039 H  68.8422 -6.4992 5.6809 0
M  V30 4040 H  69.1353 -3.9096 5.8899 0
M  V30 4041 H  70.1546 -4.9819 6.8465 0
M  V30 4042 H  67.7068 -3.9243 7.8376 0
M  V30 4043 H  69.6604 -6.3970 8.3838 0
M  V30 4044 H  68.1627 -8.6501 9.2545 0
M  V30 4045 H  70.6021 -8.0653 9.7149 0
M  V30 4046 H  71.0486 -6.8109 11.7919 0
M  V30 4047 H  70.2577 -5.7973 10.5614 0
M  V30 4048 H  69.3147 -6.4343 11.9296 0
M  V30 4049 H  70.6034 -9.2433 11.8763 0
M  V30 4050 H  68.8509 -8.9690 12.0204 0
M  V30 4051 H  69.4866 -9.9940 10.7118 0
M  V30 4052 H  67.4875 -5.2815 9.6604 0
M  V30 4053 H  66.3783 -5.3253 12.2736 0
M  V30 4054 H  65.5130 -3.2327 11.7842 0
M  V30 4055 H  65.0670 -3.6558 10.1670 0
M  V30 4056 H  66.9282 -2.6623 9.4042 0
M  V30 4057 H  67.8939 -3.8633 10.2172 0
M  V30 4058 H  69.2669 -0.8261 11.6014 0
M  V30 4059 H  69.3540 -1.8703 10.2005 0
M  V30 4060 H  64.9431 -6.2243 9.1134 0
M  V30 4061 H  62.2772 -6.5054 10.0574 0
M  V30 4062 H  61.8248 -7.5213 8.0239 0
M  V30 4063 H  63.3723 -8.3712 7.9753 0
M  V30 4064 H  62.8231 -5.6518 7.4081 0
M  V30 4065 H  65.0569 -8.7696 10.1723 0
M  V30 4066 H  63.4802 -10.9169 11.2882 0
M  V30 4067 H  65.7417 -11.7794 12.0389 0
M  V30 4068 H  66.4580 -10.3244 11.3952 0
M  V30 4069 H  65.1426 -8.0861 12.6756 0
M  V30 4070 H  65.0673 -9.0324 15.3769 0
M  V30 4071 H  65.2510 -6.2805 14.1427 0
M  V30 4072 H  67.1868 -7.8190 13.9454 0
M  V30 4073 H  67.2157 -8.0368 15.6596 0
M  V30 4074 H  65.7339 -5.3996 16.3914 0
M  V30 4075 H  64.0732 -6.0271 16.2673 0
M  V30 4076 H  65.3264 -6.9834 17.0933 0
M  V30 4077 H  68.9241 -6.4339 14.9633 0
M  V30 4078 H  67.6794 -5.4031 14.2182 0
M  V30 4079 H  67.7092 -5.6274 15.9834 0
M  V30 4080 H  62.7100 -7.2109 13.3805 0
M  V30 4081 H  60.7952 -6.7458 15.3999 0
M  V30 4082 H  60.5538 -7.3325 12.4429 0
M  V30 4083 H  60.4310 -5.8036 13.2395 0
M  V30 4084 H  58.4663 -9.0576 12.8722 0
M  V30 4085 H  55.9472 -8.6449 13.1727 0
M  V30 4086 H  58.7961 -4.1820 14.1727 0
M  V30 4087 H  54.3225 -6.3755 13.8955 0
M  V30 4088 H  56.7167 -2.9075 14.6613 0
M  V30 4089 H  54.5314 -3.9783 14.5240 0
M  V30 4090 H  61.1262 -9.6506 13.2727 0
M  V30 4091 H  58.9605 -11.0446 14.4671 0
M  V30 4092 H  60.0018 -13.0760 13.4874 0
M  V30 4093 H  61.4566 -12.1424 13.1289 0
M  V30 4094 H  58.8373 -11.5920 12.1390 0
M  V30 4095 H  62.4636 -11.0255 15.3135 0
M  V30 4096 H  62.2946 -12.9363 17.3935 0
M  V30 4097 H  64.0221 -10.4438 17.1996 0
M  V30 4098 H  64.4277 -12.0188 16.5896 0
M  V30 4099 H  64.5359 -12.9534 18.8367 0
M  V30 4100 H  63.8591 -11.5228 19.5337 0
M  V30 4101 H  66.7642 -8.8926 19.0801 0
M  V30 4102 H  65.3915 -9.1722 17.9826 0
M  V30 4103 H  65.1400 -9.1889 19.7443 0
M  V30 4104 H  61.7146 -9.3836 17.5001 0
M  V30 4105 H  60.5612 -8.1367 19.0871 0
M  V30 4106 H  61.1577 -9.2625 20.2841 0
M  V30 4107 H  58.9076 -9.7004 17.4928 0
M  V30 4108 H  56.5652 -9.8230 19.1026 0
M  V30 4109 H  57.0320 -11.2627 16.4715 0
M  V30 4110 H  56.7419 -9.5789 16.5642 0
M  V30 4111 H  54.8291 -11.7573 17.4758 0
M  V30 4112 H  53.2254 -9.9309 17.8638 0
M  V30 4113 H  54.6503 -9.7988 18.9218 0
M  V30 4114 H  54.4989 -8.7431 17.4970 0
M  V30 4115 H  53.4239 -10.9427 15.6233 0
M  V30 4116 H  54.6970 -9.7842 15.1713 0
M  V30 4117 H  54.9991 -11.5333 15.0428 0
M  V30 4118 H  58.8444 -12.3967 18.0725 0
M  V30 4119 H  57.3108 -14.5371 19.2022 0
M  V30 4120 H  59.3579 -15.8433 19.0575 0
M  V30 4121 H  60.3308 -14.3780 18.9053 0
M  V30 4122 H  59.3805 -13.9811 16.9059 0
M  V30 4123 H  59.6833 -12.2674 20.6136 0
M  V30 4124 H  59.9068 -13.6788 23.1043 0
M  V30 4125 H  60.6380 -11.3597 23.9422 0
M  V30 4126 H  60.3544 -10.7707 22.3653 0
M  V30 4127 H  62.0228 -12.4083 21.4479 0
M  V30 4128 H  64.0065 -11.2358 22.3193 0
M  V30 4129 H  62.6751 -10.1089 21.9664 0
M  V30 4130 H  63.0255 -10.5734 23.6483 0
M  V30 4131 H  63.5280 -13.5487 23.0316 0
M  V30 4132 H  62.5246 -12.9792 24.3866 0
M  V30 4133 H  61.8476 -14.1120 23.1926 0
M  V30 4134 H  57.7586 -10.9932 22.0255 0
M  V30 4135 H  56.4771 -10.6595 24.5418 0
M  V30 4136 H  55.4004 -10.2367 21.7338 0
M  V30 4137 H  53.7427 -8.7571 22.8003 0
M  V30 4138 H  53.5698 -10.4428 23.3439 0
M  V30 4139 H  54.3478 -9.2420 24.4021 0
M  V30 4140 H  55.9613 -7.8738 22.1595 0
M  V30 4141 H  56.6487 -8.3265 23.7374 0
M  V30 4142 H  57.4000 -8.9184 22.2366 0
M  V30 4143 H  55.6805 -12.8170 21.7735 0
M  V30 4144 H  53.3283 -13.9001 22.9496 0
M  V30 4145 H  55.3124 -15.0916 20.9846 0
M  V30 4146 H  53.8648 -14.2235 20.5932 0
M  V30 4147 H  52.4576 -15.9991 21.4998 0
M  V30 4148 H  53.8413 -16.8293 22.1600 0
M  V30 4149 H  56.7385 -15.0930 23.0592 0
M  V30 4150 H  56.0501 -17.3623 24.6720 0
M  V30 4151 H  58.5435 -17.3988 25.1539 0
M  V30 4152 H  58.6944 -15.9296 24.2554 0
M  V30 4153 H  57.7979 -17.0502 22.2275 0
M  V30 4154 H  57.5962 -18.5309 23.1286 0
M  V30 4155 H  61.7035 -16.6052 22.1717 0
M  V30 4156 H  60.1405 -15.9795 21.5950 0
M  V30 4157 H  60.5508 -15.8917 23.3245 0
M  V30 4158 H  56.8061 -13.9893 25.4947 0
M  V30 4159 H  57.3552 -14.5802 28.2707 0
M  V30 4160 H  57.1124 -12.1419 28.6019 0
M  V30 4161 H  58.1642 -12.5233 27.2179 0
M  V30 4162 H  56.4902 -11.9862 26.9419 0
M  V30 4163 H  54.3956 -13.5646 26.4931 0
M  V30 4164 H  52.8938 -13.6998 29.0242 0
M  V30 4165 H  51.0328 -12.7282 27.7631 0
M  V30 4166 H  52.0619 -10.5485 27.2579 0
M  V30 4167 H  52.6899 -11.2361 28.7745 0
M  V30 4168 H  53.6724 -11.3050 27.2922 0
M  V30 4169 H  51.3482 -12.0451 25.4130 0
M  V30 4170 H  52.9341 -12.8524 25.3973 0
M  V30 4171 H  51.4495 -13.8113 25.6065 0
M  V30 4172 H  53.6039 -15.7849 26.3793 0
M  V30 4173 H  51.7753 -17.7662 27.4269 0
M  V30 4174 H  52.8345 -17.9595 26.0823 0
M  V30 4175 H  51.7463 -15.6172 24.5548 0
M  V30 4176 H  49.4643 -16.9333 23.3576 0
M  V30 4177 H  49.0425 -14.4715 25.0878 0
M  V30 4178 H  48.2501 -15.9910 25.2378 0
M  V30 4179 H  46.9620 -15.6511 23.2255 0
M  V30 4180 H  47.9463 -14.2561 22.7622 0
M  V30 4181 H  47.1418 -12.9929 24.7011 0
M  V30 4182 H  46.2805 -14.3843 25.3066 0
M  V30 4183 H  44.6047 -14.0774 23.7347 0
M  V30 4184 H  46.3958 -10.8587 22.0505 0
M  V30 4185 H  47.2887 -11.8726 23.1618 0
M  V30 4186 H  44.2150 -11.3490 21.5472 0
M  V30 4187 H  43.4380 -12.7382 22.2730 0
M  V30 4188 H  49.3753 -16.3379 21.2565 0
M  V30 4189 H  51.2955 -14.6195 20.1066 0
M  V30 4190 H  48.5397 -15.3361 19.0392 0
M  V30 4191 H  49.9327 -16.3485 18.8989 0
M  V30 4192 H  52.0201 -15.3333 17.6470 0
M  V30 4193 H  48.0829 -13.7065 17.3727 0
M  V30 4194 H  52.6311 -14.1923 15.5718 0
M  V30 4195 H  48.6945 -12.5730 15.2968 0
M  V30 4196 H  51.9539 -12.8674 13.9228 0
M  V30 4197 H  49.5197 -10.9877 21.7417 0
M  V30 4198 H  51.7602 -10.5108 22.1558 0
M  V30 4199 H  51.3846 -9.1626 20.9587 0
M  V30 4200 H  53.3966 -10.8462 20.5759 0
M  V30 4201 H  52.3232 -10.3068 19.2199 0
M  V30 4202 H  51.9933 -12.5193 18.9046 0
M  V30 4203 H  52.4769 -12.9221 20.6395 0
M  V30 4204 H  49.0743 -11.6132 18.5247 0
M  V30 4205 H  47.9831 -8.8624 18.0861 0
M  V30 4206 H  48.8745 -10.8494 15.9652 0
M  V30 4207 H  50.7925 -9.4838 15.5945 0
M  V30 4208 H  50.7513 -9.8250 17.2913 0
M  V30 4209 H  48.5315 -8.9600 14.4194 0
M  V30 4210 H  47.0235 -9.4138 15.2484 0
M  V30 4211 H  47.9259 -7.9710 15.7693 0
M  V30 4212 H  51.3164 -7.4800 16.8933 0
M  V30 4213 H  49.7976 -7.2484 15.9952 0
M  V30 4214 H  49.7553 -7.5992 17.7394 0
M  V30 4215 H  46.4002 -7.8884 18.2020 0
M  V30 4216 H  44.1734 -7.5225 17.6313 0
M  V30 4217 H  44.0299 -7.4201 19.4626 0
M  V30 4218 H  42.5298 -9.0799 18.0422 0
M  V30 4219 H  43.2745 -9.5753 19.6247 0
M  V30 4220 H  44.1322 -11.2688 18.3865 0
M  V30 4221 H  44.0190 -10.2967 16.8230 0
M  V30 4222 H  47.7278 -8.0675 22.3723 0
M  V30 4223 H  47.9153 -5.9119 23.1826 0
M  V30 4224 H  46.1292 -5.5812 22.9494 0
M  V30 4225 H  48.3791 -5.5506 20.9644 0
M  V30 4226 H  47.0253 -4.3550 21.2247 0
M  V30 4227 H  45.4761 -5.7191 20.2183 0
M  V30 4228 H  46.9903 -6.2094 19.2750 0
M  V30 4229 H  44.5811 -10.0809 24.6002 0
M  V30 4230 H  45.5353 -10.8078 26.5563 0
M  V30 4231 H  45.8309 -9.1015 27.1419 0
M  V30 4232 H  47.4276 -10.8078 25.2587 0
M  V30 4233 H  47.9781 -9.7303 26.6229 0
M  V30 4234 H  47.6530 -7.8192 25.3943 0
M  V30 4235 H  48.1043 -9.0004 24.0422 0
M  V30 4236 H  42.8292 -9.8484 26.1721 0
M  V30 4237 H  41.5811 -7.2560 25.9795 0
M  V30 4238 H  40.7758 -9.7004 27.6025 0
M  V30 4239 H  40.3584 -9.4468 25.9296 0
M  V30 4240 H  40.5693 -6.2370 27.9706 0
M  V30 4241 H  42.6523 -5.3042 29.6560 0
M  V30 4242 H  40.8446 -4.2425 30.9676 0
M  V30 4243 H  40.6200 -4.0109 29.2174 0
M  V30 4244 H  39.6439 -5.2179 30.0878 0
M  V30 4245 H  40.0078 -7.6621 30.3710 0
M  V30 4246 H  41.3693 -8.2751 32.9127 0
M  V30 4247 H  39.2215 -9.9636 32.8302 0
M  V30 4248 H  38.6406 -8.6803 31.8094 0
M  V30 4249 H  38.0315 -8.3549 34.1995 0
M  V30 4250 H  39.0065 -7.0211 33.5668 0
M  V30 4251 H  41.0518 -8.1483 34.5280 0
M  V30 4252 H  40.0080 -9.3521 35.2532 0
M  V30 4253 H  38.8588 -7.6105 36.5687 0
M  V30 4254 H  39.8220 -6.3627 35.7954 0
M  V30 4255 H  41.7973 -7.3879 36.7495 0
M  V30 4256 H  40.7294 -6.9456 37.9257 0
M  V30 4257 H  40.8754 -8.5317 37.4985 0
M  V30 4258 H  41.3053 -9.5640 29.6795 0
M  V30 4259 H  42.0909 -12.2293 30.4587 0
M  V30 4260 H  43.2517 -12.1873 28.1555 0
M  V30 4261 H  42.6720 -10.5822 27.9695 0
M  V30 4262 H  40.3250 -11.3505 28.1265 0
M  V30 4263 H  40.8637 -12.9868 28.4434 0
M  V30 4264 H  43.7174 -9.1297 30.4955 0
M  V30 4265 H  46.3777 -10.3509 30.5041 0
M  V30 4266 H  45.8025 -7.5004 31.2943 0
M  V30 4267 H  45.5134 -7.9505 29.6803 0
M  V30 4268 H  48.1686 -8.0968 31.1375 0
M  V30 4269 H  49.1365 -8.8696 29.0085 0
M  V30 4270 H  47.9655 -10.0379 29.6648 0
M  V30 4271 H  47.5028 -8.9792 28.3112 0
M  V30 4272 H  48.8621 -6.4534 29.4361 0
M  V30 4273 H  47.2182 -6.4725 28.7547 0
M  V30 4274 H  47.4906 -5.8628 30.4043 0
M  V30 4275 H  44.2698 -8.6554 32.9101 0
M  V30 4276 H  45.9750 -9.2378 35.1238 0
M  V30 4277 H  42.9508 -9.0426 35.2169 0
M  V30 4278 H  43.9516 -7.6490 34.9993 0
M  V30 4279 H  44.2569 -9.5456 37.3548 0
M  V30 4280 H  43.2238 -8.1388 37.3865 0
M  V30 4281 H  44.2339 -11.4055 33.1240 0
M  V30 4282 H  43.8450 -13.4102 35.2069 0
M  V30 4283 H  43.5638 -13.8831 32.2427 0
M  V30 4284 H  42.4323 -12.8785 32.9993 0
M  V30 4285 H  42.9465 -15.5855 34.2101 0
M  V30 4286 H  40.5589 -15.4048 34.7951 0
M  V30 4287 H  41.5009 -14.0248 35.4077 0
M  V30 4288 H  40.4808 -13.8341 33.9620 0
M  V30 4289 H  41.2460 -16.5613 32.7214 0
M  V30 4290 H  41.1967 -15.0437 31.7933 0
M  V30 4291 H  42.6843 -16.0199 31.8240 0
M  V30 4292 H  46.6399 -12.4140 34.4614 0
M  V30 4293 H  47.8372 -14.7853 33.2315 0
M  V30 4294 H  48.4064 -15.9261 35.2646 0
M  V30 4295 H  49.9980 -13.5359 34.0062 0
M  V30 4296 H  48.9528 -12.2245 34.4056 0
M  V30 4297 H  48.1675 -12.0625 32.0752 0
M  V30 4298 H  49.0926 -13.4807 31.6375 0
M  V30 4299 H  52.7987 -12.1402 32.3542 0
M  V30 4300 H  51.7165 -12.8777 33.5592 0
M  V30 4301 H  51.8282 -13.5682 31.9228 0
M  V30 4302 H  39.9337 -15.5992 18.1993 0
M  V30 4303 H  40.7881 -16.3782 16.3386 0
M  V30 4304 H  38.9904 -17.8614 16.4085 0
M  V30 4305 H  38.6147 -17.0261 14.8127 0
M  V30 4306 H  36.8285 -17.1499 16.7671 0
M  V30 4307 H  37.0735 -15.6369 15.7879 0
M  V30 4308 H  37.3807 -14.7009 17.8348 0
M  V30 4309 H  37.9275 -16.2993 18.5782 0
M  V30 4310 H  41.6372 -14.0965 15.8219 0
M  V30 4311 H  40.0668 -12.4812 13.9994 0
M  V30 4312 H  43.0398 -12.2311 14.5225 0
M  V30 4313 H  41.8700 -11.7181 15.6926 0
M  V30 4314 H  40.8298 -10.2553 13.8567 0
M  V30 4315 H  42.2043 -10.6492 12.8689 0
M  V30 4316 H  42.6286 -6.8737 14.2110 0
M  V30 4317 H  42.3261 -7.8700 12.7678 0
M  V30 4318 H  41.0744 -7.7201 14.0239 0
M  V30 4319 H  40.2323 -12.2035 11.8217 0
M  V30 4320 H  41.1287 -14.4541 10.3066 0
M  V30 4321 H  40.5633 -13.0685 8.3379 0
M  V30 4322 H  39.2774 -13.0182 9.5671 0
M  V30 4323 H  40.3961 -11.6451 9.3930 0
M  V30 4324 H  42.7660 -14.6105 8.7278 0
M  V30 4325 H  45.2812 -13.7116 9.6986 0
M  V30 4326 H  45.0884 -15.7406 8.3936 0
M  V30 4327 H  46.7021 -13.6896 6.8366 0
M  V30 4328 H  46.9483 -15.4045 6.8177 0
M  V30 4329 H  44.6250 -15.6843 5.9736 0
M  V30 4330 H  43.2481 -15.0772 6.9238 0
M  V30 4331 H  44.3183 -13.9343 6.0778 0
M  V30 4332 H  48.5808 -14.3109 8.2749 0
M  V30 4333 H  47.2668 -13.6113 9.2501 0
M  V30 4334 H  47.5197 -15.3728 9.2307 0
M  V30 4335 H  43.1967 -12.4571 7.0593 0
M  V30 4336 H  45.1226 -10.5135 6.1956 0
M  V30 4337 H  42.0994 -10.6037 5.9570 0
M  V30 4338 H  43.2537 -11.1216 4.7716 0
M  V30 4339 H  44.7184 -9.3890 3.6242 0
M  V30 4340 H  41.4468 -8.2968 6.1314 0
M  V30 4341 H  44.7076 -7.1460 2.6374 0
M  V30 4342 H  41.4434 -6.0561 5.1449 0
M  V30 4343 H  43.0759 -5.4719 3.3973 0
M  V30 4344 H  42.5620 -10.4221 8.7021 0
M  V30 4345 H  42.9174 -7.6093 9.2095 0
M  V30 4346 H  41.6907 -8.0524 11.3082 0
M  V30 4347 H  41.8710 -9.7597 11.0805 0
M  V30 4348 H  40.3860 -9.8151 9.2325 0
M  V30 4349 H  40.5436 -8.1057 8.9272 0
M  V30 4350 H  44.5583 -10.5326 10.4369 0
M  V30 4351 H  46.0574 -9.1638 12.4602 0
M  V30 4352 H  47.7293 -11.0519 12.0662 0
M  V30 4353 H  46.7858 -11.5930 10.7893 0
M  V30 4354 H  44.8890 -12.0904 12.2985 0
M  V30 4355 H  45.9681 -13.9400 13.5190 0
M  V30 4356 H  46.5768 -13.8011 11.8524 0
M  V30 4357 H  47.5599 -13.2061 13.2114 0
M  V30 4358 H  45.1983 -11.9350 14.7352 0
M  V30 4359 H  46.7646 -11.1291 14.4812 0
M  V30 4360 H  45.2601 -10.3345 13.9594 0
M  V30 4361 H  46.8715 -9.9277 9.0215 0
M  V30 4362 H  49.3745 -8.5831 9.0628 0
M  V30 4363 H  49.1953 -8.5628 6.6177 0
M  V30 4364 H  47.5178 -8.8169 6.6748 0
M  V30 4365 H  47.8150 -11.0860 7.5904 0
M  V30 4366 H  48.8781 -12.1060 5.6164 0
M  V30 4367 H  47.7769 -10.7811 5.1701 0
M  V30 4368 H  49.5369 -10.5174 5.1589 0
M  V30 4369 H  50.0614 -12.0725 7.7721 0
M  V30 4370 H  50.7823 -10.4862 7.4102 0
M  V30 4371 H  49.8402 -10.7158 8.9025 0
M  V30 4372 H  46.0640 -7.3611 8.4420 0
M  V30 4373 H  46.9751 -4.7210 7.7251 0
M  V30 4374 H  44.2929 -5.5039 8.9164 0
M  V30 4375 H  44.6965 -5.7072 7.2299 0
M  V30 4376 H  46.0866 -6.2657 10.8354 0
M  V30 4377 H  46.2118 -3.8380 12.3523 0
M  V30 4378 H  46.7908 -6.6698 13.2890 0
M  V30 4379 H  45.1988 -6.0427 13.0790 0
M  V30 4380 H  48.3415 -5.5644 15.0366 0
M  V30 4381 H  44.1711 -4.6775 14.7826 0
M  V30 4382 H  48.3955 -4.6612 17.3052 0
M  V30 4383 H  44.2277 -3.7791 17.0555 0
M  V30 4384 H  47.2152 -3.2938 18.7788 0
M  V30 4385 H  48.7104 -6.2082 11.3741 0
M  V30 4386 H  50.7537 -5.0374 13.0309 0
M  V30 4387 H  50.8491 -6.7906 10.5672 0
M  V30 4388 H  50.0132 -7.8767 12.5786 0
M  V30 4389 H  51.3267 -7.2620 13.5291 0
M  V30 4390 H  53.2555 -7.0824 11.0013 0
M  V30 4391 H  52.8580 -5.4031 10.5662 0
M  V30 4392 H  53.1733 -5.8315 12.2645 0
M  V30 4393 H  51.6916 -9.6139 12.9644 0
M  V30 4394 H  51.5925 -9.2296 11.2295 0
M  V30 4395 H  52.9406 -8.5988 12.2051 0
M  V30 4396 H  49.4008 -4.1736 9.8932 0
M  V30 4397 H  51.7435 -2.5214 9.2550 0
M  V30 4398 H  49.1633 -3.1432 7.7927 0
M  V30 4399 H  50.0949 -1.8895 5.8888 0
M  V30 4400 H  49.8002 -0.8359 7.2924 0
M  V30 4401 H  51.4559 -1.3629 6.9074 0
M  V30 4402 H  50.6900 -4.2644 6.2141 0
M  V30 4403 H  52.0713 -3.8261 7.2471 0
M  V30 4404 H  50.8235 -4.9398 7.8552 0
M  V30 4405 H  48.3472 -2.0320 10.3396 0
M  V30 4406 H  48.8611 0.8924 10.1147 0
M  V30 4407 H  46.4161 1.1379 9.7299 0
M  V30 4408 H  46.2312 -0.5975 9.7800 0
M  V30 4409 H  46.9826 -0.7994 6.3497 0
M  V30 4410 H  46.1353 -1.4416 7.7390 0
M  V30 4411 H  48.8583 -1.3019 12.4942 0
M  V30 4412 H  47.4001 0.5316 14.3272 0
M  V30 4413 H  46.9629 -1.5178 15.7495 0
M  V30 4414 H  47.5667 -2.5106 14.4649 0
M  V30 4415 H  45.1159 -2.4494 14.4093 0
M  V30 4416 H  45.7661 -1.7450 12.9561 0
M  V30 4417 H  51.1485 0.9571 16.4461 0
M  V30 4418 H  50.1133 2.2190 18.0827 0
M  V30 4419 H  50.3743 0.7255 19.1099 0
M  V30 4420 H  47.9528 1.7826 18.7425 0
M  V30 4421 H  48.2300 -0.0209 18.7597 0
M  V30 4422 H  47.1666 0.1551 16.7551 0
M  V30 4423 H  47.8327 1.8560 16.4581 0
M  V30 4424 H  52.4841 -3.1549 16.9990 0
M  V30 4425 H  54.6179 -2.3342 16.5505 0
M  V30 4426 H  54.8754 -2.7904 18.3132 0
M  V30 4427 H  55.3600 -0.3357 17.4237 0
M  V30 4428 H  54.5521 -0.6350 19.0242 0
M  V30 4429 H  52.9728 0.7395 18.1386 0
M  V30 4430 H  53.3986 0.2541 16.4079 0
M  V30 4431 H  51.3157 -4.3794 21.0606 0
M  V30 4432 H  51.1575 -6.5421 20.2392 0
M  V30 4433 H  52.6035 -6.7957 21.3422 0
M  V30 4434 H  52.6924 -7.3912 18.7502 0
M  V30 4435 H  54.0907 -6.6087 19.6091 0
M  V30 4436 H  53.8653 -5.0737 17.9495 0
M  V30 4437 H  52.0692 -5.4421 17.7358 0
M  V30 4438 H  52.1032 -4.9056 23.2281 0
M  V30 4439 H  54.9663 -4.4346 23.7206 0
M  V30 4440 H  54.1122 -2.1578 23.7387 0
M  V30 4441 H  54.5244 -2.6379 25.3480 0
M  V30 4442 H  52.1078 -3.1306 25.8139 0
M  V30 4443 H  51.7090 -2.5837 24.1917 0
M  V30 4444 H  52.6406 -0.3460 24.7064 0
M  V30 4445 H  53.0650 -0.8917 26.3279 0
M  V30 4446 H  50.6519 -1.3720 26.7716 0
M  V30 4447 H  50.2489 -0.7754 25.1745 0
M  V30 4448 H  51.1656 0.7203 27.5032 0
M  V30 4449 H  51.5030 1.3171 26.0035 0
M  V30 4450 H  49.9381 1.0620 26.4565 0
M  V30 4451 H  55.3717 -4.6111 26.1491 0
M  V30 4452 H  53.9601 -7.0135 27.0728 0
M  V30 4453 H  55.7269 -6.8331 28.9268 0
M  V30 4454 H  56.3721 -5.4960 28.1258 0
M  V30 4455 H  56.8504 -6.9066 26.1061 0
M  V30 4456 H  58.7142 -8.1456 27.1363 0
M  V30 4457 H  58.5642 -6.5022 27.8025 0
M  V30 4458 H  57.9845 -7.8990 28.7406 0
M  V30 4459 H  56.7196 -9.3550 26.3392 0
M  V30 4460 H  55.9131 -9.1575 27.9133 0
M  V30 4461 H  55.1120 -8.5965 26.4264 0
M  V30 4462 H  51.4933 -4.9680 30.1483 0
M  V30 4463 H  50.7715 -6.5880 31.6152 0
M  V30 4464 H  52.4818 -7.1117 32.0084 0
M  V30 4465 H  50.7409 -7.7877 29.6579 0
M  V30 4466 H  51.7919 -8.8643 30.6888 0
M  V30 4467 H  53.7202 -8.1372 29.6830 0
M  V30 4468 H  52.5425 -7.9498 28.2689 0
M  V30 4469 H  51.7950 -3.5175 31.8591 0
M  V30 4470 H  54.5271 -2.5761 31.9504 0
M  V30 4471 H  53.5649 -0.6981 33.2564 0
M  V30 4472 H  52.0212 -1.5447 33.3249 0
M  V30 4473 H  52.1174 -0.0270 31.5894 0
M  V30 4474 H  52.7023 -4.6587 34.0796 0
M  V30 4475 H  52.8373 -4.4360 36.5399 0
M  V30 4476 H  54.3654 -3.7134 36.3735 0
M  V30 4477 H  54.2267 -6.3782 34.2313 0
M  V30 4478 H  54.8550 -8.3064 36.3957 0
M  V30 4479 H  54.3298 -8.8721 33.4622 0
M  V30 4480 H  53.8977 -11.1628 34.2705 0
M  V30 4481 H  55.5575 -10.6349 34.6361 0
M  V30 4482 H  54.3267 -10.6554 35.9214 0
M  V30 4483 H  52.0550 -9.5065 34.1714 0
M  V30 4484 H  52.4154 -8.9357 35.8180 0
M  V30 4485 H  52.3828 -7.7819 34.4635 0
M  V30 4486 H  56.2671 -6.7239 33.5567 0
M  V30 4487 H  58.7120 -8.3813 33.9198 0
M  V30 4488 H  59.1911 -7.9965 31.5655 0
M  V30 4489 H  57.8541 -6.9024 31.4089 0
M  V30 4490 H  58.8263 -10.4297 31.6957 0
M  V30 4491 H  55.5364 -7.7410 31.3198 0
M  V30 4492 H  57.3658 -12.2990 31.0732 0
M  V30 4493 H  54.0799 -9.6089 30.6987 0
M  V30 4494 H  54.9887 -11.8967 30.5765 0
M  V30 4495 H  60.7338 -7.3959 33.8263 0
M  V30 4496 H  60.8916 -4.8931 35.1346 0
M  V30 4497 H  62.6717 -6.6471 35.1485 0
M  V30 4498 H  63.2785 -5.0358 34.7780 0
M  V30 4499 H  63.2230 -7.2967 33.2044 0
M  V30 4500 H  62.0625 -2.9576 34.3426 0
M  V30 4501 H  60.6814 -1.9890 31.9911 0
M  V30 4502 H  62.1348 0.0684 32.3826 0
M  V30 4503 H  62.8746 -0.7542 33.6886 0
M  V30 4504 H  60.7724 -0.8899 34.9170 0
M  V30 4505 H  60.3455 1.5087 35.2676 0
M  V30 4506 H  62.0859 1.1532 35.1580 0
M  V30 4507 H  61.2373 1.8804 33.7730 0
M  V30 4508 H  58.7087 0.1329 34.0370 0
M  V30 4509 H  59.5286 0.4372 32.4870 0
M  V30 4510 H  59.2537 -1.2334 33.0353 0
M  V30 4511 H  64.0444 -3.0506 32.6490 0
M  V30 4512 H  65.1237 -2.1977 30.1653 0
M  V30 4513 H  66.8400 -3.9417 30.5157 0
M  V30 4514 H  65.8738 -4.6970 31.7235 0
M  V30 4515 H  66.7107 -1.8047 32.0466 0
M  V30 4516 H  67.8135 -3.0989 32.4413 0
M  V30 4517 H  63.4239 -5.2504 31.0307 0
M  V30 4518 H  63.7462 -6.4122 28.4283 0
M  V30 4519 H  61.5237 -6.9031 30.4409 0
M  V30 4520 H  63.0948 -7.6206 30.5511 0
M  V30 4521 H  63.3056 -7.8884 27.3738 0
M  V30 4522 H  60.4177 -9.0805 30.2790 0
M  V30 4523 H  62.5791 -9.7115 25.9082 0
M  V30 4524 H  59.6872 -10.8943 28.8063 0
M  V30 4525 H  60.7678 -11.2200 26.6173 0
M  V30 4526 H  61.0429 -4.5136 29.8922 0
M  V30 4527 H  59.3391 -4.6472 27.6396 0
M  V30 4528 H  58.3306 -2.5490 28.5359 0
M  V30 4529 H  59.6629 -2.3607 29.6155 0
M  V30 4530 H  59.0853 -4.4558 30.7787 0
M  V30 4531 H  57.8040 -4.7662 29.6335 0
M  V30 4532 H  56.8104 -2.8878 32.9195 0
M  V30 4533 H  58.0702 -4.0769 32.6769 0
M  V30 4534 H  61.8788 -2.2125 28.4369 0
M  V30 4535 H  61.4540 -0.7037 26.0381 0
M  V30 4536 H  64.0359 -0.9766 27.6112 0
M  V30 4537 H  62.7119 0.0541 28.0935 0
M  V30 4538 H  63.3662 -3.6265 26.7262 0
M  V30 4539 H  64.9169 -3.5824 24.3378 0
M  V30 4540 H  63.8705 -5.9407 25.9490 0
M  V30 4541 H  65.3360 -5.0809 26.2702 0
M  V30 4542 H  67.1267 -5.0342 24.3616 0
M  V30 4543 H  63.8855 -7.8010 24.5014 0
M  V30 4544 H  68.3402 -6.5311 22.8527 0
M  V30 4545 H  65.1049 -9.3018 22.9982 0
M  V30 4546 H  67.3367 -8.6711 22.1675 0
M  V30 4547 H  61.7945 -5.2876 25.0050 0
M  V30 4548 H  61.5253 -6.1350 22.2785 0
M  V30 4549 H  59.2403 -6.7303 22.8696 0
M  V30 4550 H  59.7103 -8.1939 24.7971 0
M  V30 4551 H  61.0440 -8.2013 23.6188 0
M  V30 4552 H  61.1955 -7.2710 25.1283 0
M  V30 4553 H  58.3086 -6.1720 25.0823 0
M  V30 4554 H  59.7385 -5.1696 25.4252 0
M  V30 4555 H  58.6277 -4.7152 24.1112 0
M  V30 4556 H  60.5786 -3.1542 23.9850 0
M  V30 4557 H  58.7776 -2.2569 21.9433 0
M  V30 4558 H  59.3385 0.0522 22.9433 0
M  V30 4559 H  60.3747 -0.7985 24.0635 0
M  V30 4560 H  57.5617 -0.9266 26.1888 0
M  V30 4561 H  59.1350 -0.2286 25.8758 0
M  V30 4562 H  62.3099 -1.7198 22.4310 0
M  V30 4563 H  62.5635 -0.1348 20.0425 0
M  V30 4564 H  65.0312 -0.9319 20.2450 0
M  V30 4565 H  64.5375 -1.7130 21.7055 0
M  V30 4566 H  63.7585 0.4658 22.6316 0
M  V30 4567 H  64.2468 1.2649 21.1413 0
M  V30 4568 H  66.5969 0.3319 21.5580 0
M  V30 4569 H  66.0336 -0.1384 23.1577 0
M  V30 4570 H  66.0911 2.6823 22.0164 0
M  V30 4571 H  67.1516 2.0435 23.2549 0
M  V30 4572 H  65.1415 1.6936 24.6283 0
M  V30 4573 H  65.4414 3.2795 24.2900 0
M  V30 4574 H  64.2455 2.4770 23.4869 0
M  V30 4575 H  62.2619 -3.6014 20.5507 0
M  V30 4576 H  63.3603 -4.2393 17.9258 0
M  V30 4577 H  62.2814 -6.5197 18.4729 0
M  V30 4578 H  61.8560 -5.8659 19.9991 0
M  V30 4579 H  64.4067 -5.6352 21.0343 0
M  V30 4580 H  60.2648 -3.1370 19.0783 0
M  V30 4581 H  58.9555 -4.3442 16.6997 0
M  V30 4582 H  56.8297 -4.0243 18.0099 0
M  V30 4583 H  57.7438 -3.4889 19.3478 0
M  V30 4584 H  58.8753 -5.6764 19.5291 0
M  V30 4585 H  56.9195 -7.0047 20.2190 0
M  V30 4586 H  56.7974 -5.3124 20.7560 0
M  V30 4587 H  55.8531 -5.8718 19.3551 0
M  V30 4588 H  58.1253 -7.5770 18.1551 0
M  V30 4589 H  57.1156 -6.4739 17.1902 0
M  V30 4590 H  58.8871 -6.3053 17.1703 0
M  V30 4591 H  60.4217 -1.5678 17.1930 0
M  V30 4592 H  58.3812 0.3745 16.6732 0
M  V30 4593 H  61.2884 0.3395 15.7892 0
M  V30 4594 H  60.9413 0.1234 18.2474 0
M  V30 4595 H  59.9584 1.5502 18.2435 0
M  V30 4596 H  61.0389 2.7870 15.6370 0
M  V30 4597 H  59.9537 1.9427 14.5070 0
M  V30 4598 H  59.3072 2.6297 16.0161 0
M  V30 4599 H  62.2332 2.0673 18.9903 0
M  V30 4600 H  62.8957 1.4389 17.4628 0
M  V30 4601 H  61.8861 2.9045 17.4588 0
M  V30 4602 H  57.2088 0.8272 14.8912 0
M  V30 4603 H  57.1289 -1.2683 12.9243 0
M  V30 4604 H  55.3716 0.1490 11.8482 0
M  V30 4605 H  55.7362 1.4293 12.9687 0
M  V30 4606 H  55.1102 -0.0288 14.8781 0
M  V30 4607 H  54.7937 -1.3529 13.7769 0
M  V30 4608 H  53.3458 1.3200 13.6788 0
M  V30 4609 H  52.7378 -0.1007 14.5176 0
M  V30 4610 H  52.8243 -1.3673 12.3521 0
M  V30 4611 H  53.3254 0.1101 11.5404 0
M  V30 4612 H  51.2629 1.1349 12.2509 0
M  V30 4613 H  50.9598 -0.2269 11.3716 0
M  V30 4614 H  50.7930 -0.2504 13.0120 0
M  V30 4615 H  58.5306 2.0265 12.8692 0
M  V30 4616 H  59.1670 1.8218 10.0379 0
M  V30 4617 H  60.3705 3.6067 12.1829 0
M  V30 4618 H  58.9574 4.0011 11.2383 0
M  V30 4619 H  60.7067 4.9530 8.3174 0
M  V30 4620 H  59.1588 4.5712 9.0375 0
M  V30 4621 H  62.3135 -1.1328 10.9227 0
M  V30 4622 H  61.9524 -2.0363 8.8398 0
M  V30 4623 H  63.5549 -1.2320 8.4570 0
M  V30 4624 H  61.3671 -0.7318 7.0365 0
M  V30 4625 H  62.5324 0.5882 7.5035 0
M  V30 4626 H  60.6251 1.5221 8.3347 0
M  V30 4627 H  59.8550 -0.1285 8.6515 0
M  V30 4628 H  63.1170 2.0695 9.5806 0
M  V30 4629 H  65.9696 1.6831 10.0515 0
M  V30 4630 H  66.1464 4.0893 9.5094 0
M  V30 4631 H  65.2012 3.1994 8.2921 0
M  V30 4632 H  64.3708 4.2089 9.4997 0
M  V30 4633 H  63.3177 3.4438 11.7610 0
M  V30 4634 H  65.0307 4.3232 13.8898 0
M  V30 4635 H  62.9574 4.7113 15.1408 0
M  V30 4636 H  62.0573 3.7213 14.0549 0
M  V30 4637 H  62.4535 5.3106 12.2020 0
M  V30 4638 H  63.4637 6.2925 13.2380 0
M  V30 4639 H  63.4180 1.2455 13.2279 0
M  V30 4640 H  63.4678 0.1757 15.8430 0
M  V30 4641 H  63.8689 -1.2653 13.1922 0
M  V30 4642 H  62.3327 -0.8275 13.8367 0
M  V30 4643 H  63.1715 -2.2155 15.9637 0
M  V30 4644 H  64.2374 -2.9482 14.7831 0
M  V30 4645 H  61.2058 -2.7869 14.5367 0
M  V30 4646 H  62.0793 -4.1855 15.0827 0
M  V30 4647 H  63.0753 -4.3894 12.8670 0
M  V30 4648 H  59.8767 -2.3061 11.5111 0
M  V30 4649 H  60.3146 -2.2292 13.2030 0
M  V30 4650 H  61.1039 -3.5832 10.0644 0
M  V30 4651 H  62.4845 -4.4875 10.6445 0
M  V30 4652 H  64.9159 -1.3084 16.8436 0
M  V30 4653 H  67.6402 -0.3390 16.6418 0
M  V30 4654 H  68.0651 -1.8772 18.5293 0
M  V30 4655 H  66.6325 -0.8622 18.8201 0
M  V30 4656 H  66.4344 -2.5623 18.3329 0
M  V30 4657 H  69.4491 -1.3408 15.8995 0
M  V30 4658 H  69.0354 -3.7825 14.2964 0
M  V30 4659 H  70.0878 -1.9478 13.1138 0
M  V30 4660 H  71.2474 -3.2327 13.3284 0
M  V30 4661 H  71.2325 -5.1425 14.2696 0
M  V30 4662 H  71.1652 -6.5152 16.7516 0
M  V30 4663 H  73.1711 -7.7355 15.8568 0
M  V30 4664 H  73.2931 -6.6120 14.5855 0
M  V30 4665 H  71.0022 -7.2832 13.7762 0
M  V30 4666 H  71.7277 -9.4482 12.8535 0
M  V30 4667 H  73.0247 -8.2314 12.7876 0
M  V30 4668 H  73.0574 -9.5001 14.0352 0
M  V30 4669 H  70.0390 -9.3775 14.6458 0
M  V30 4670 H  71.2954 -9.4260 15.9052 0
M  V30 4671 H  70.0994 -8.1083 15.8918 0
M  V30 4672 H  73.3999 -4.0384 15.5152 0
M  V30 4673 H  75.3706 -4.3188 17.5365 0
M  V30 4674 H  74.6403 -1.7277 16.1465 0
M  V30 4675 H  75.4621 -3.0049 15.3200 0
M  V30 4676 H  77.3044 -2.9132 17.0221 0
M  V30 4677 H  76.4755 -1.5736 17.8077 0
M  V30 4678 H  76.6950 -0.1865 15.8203 0
M  V30 4679 H  77.3277 -1.5393 14.8882 0
M  V30 4680 H  79.0256 0.1677 15.8205 0
M  V30 4681 H  79.3871 -1.5361 16.0278 0
M  V30 4682 H  78.5109 -1.3952 18.2701 0
M  V30 4683 H  79.7361 -0.3125 18.0555 0
M  V30 4684 H  78.1710 0.2066 18.0753 0
M  V30 4685 H  72.3073 -2.5364 17.4884 0
M  V30 4686 H  72.9111 -1.0916 19.9348 0
M  V30 4687 H  70.0910 -1.2035 19.4192 0
M  V30 4688 H  70.8806 -1.0475 17.8912 0
M  V30 4689 H  71.8861 1.0240 18.4576 0
M  V30 4690 H  71.6912 0.7627 20.1717 0
M  V30 4691 H  68.2254 1.7292 20.2670 0
M  V30 4692 H  69.3930 0.6533 21.0016 0
M  V30 4693 H  70.9330 -3.9404 19.0683 0
M  V30 4694 H  69.8462 -4.3264 21.6779 0
M  V30 4695 H  69.3578 -6.6378 20.8260 0
M  V30 4696 H  70.2997 -6.3352 19.4450 0
M  V30 4697 H  68.7671 -4.5926 18.6668 0
M  V30 4698 H  66.7767 -5.9922 18.2816 0
M  V30 4699 H  68.2860 -6.9096 18.0638 0
M  V30 4700 H  67.3273 -7.1134 19.5492 0
M  V30 4701 H  66.6773 -4.1151 19.8777 0
M  V30 4702 H  67.2207 -5.1558 21.2151 0
M  V30 4703 H  68.1124 -3.6649 20.8289 0
M  V30 4704 H  72.9015 -5.3747 20.1687 0
M  V30 4705 H  73.4588 -7.4609 22.0237 0
M  V30 4706 H  75.4128 -5.6729 20.5331 0
M  V30 4707 H  74.6535 -7.0767 19.8618 0
M  V30 4708 H  76.4711 -7.1071 22.3011 0
M  V30 4709 H  76.9795 -7.4913 20.6721 0
M  V30 4710 H  75.0737 -10.7974 19.8731 0
M  V30 4711 H  74.6404 -9.1343 19.4111 0
M  V30 4712 H  76.3406 -9.6578 19.3597 0
M  V30 4713 H  73.7344 -3.9503 22.3440 0
M  V30 4714 H  75.1050 -4.3982 24.9556 0
M  V30 4715 H  76.0563 -2.1501 24.7340 0
M  V30 4716 H  77.6446 -2.6246 22.9073 0
M  V30 4717 H  77.3404 -4.0632 23.9098 0
M  V30 4718 H  76.5683 -3.9115 22.3135 0
M  V30 4719 H  75.8790 -0.9171 22.6088 0
M  V30 4720 H  74.7392 -2.1405 21.9993 0
M  V30 4721 H  74.2920 -1.1211 23.3878 0
M  V30 4722 H  72.1713 -4.3892 24.2010 0
M  V30 4723 H  71.1316 -1.9671 25.4081 0
M  V30 4724 H  69.7606 -4.6488 24.9869 0
M  V30 4725 H  69.8798 -3.4260 23.7668 0
M  V30 4726 H  68.2077 -1.3119 24.0585 0
M  V30 4727 H  66.2200 -2.8304 27.5596 0
M  V30 4728 H  69.9982 -1.8201 27.4233 0
M  V30 4729 H  71.5358 -2.7668 29.5897 0
M  V30 4730 H  69.6698 -2.0026 31.0200 0
M  V30 4731 H  70.0652 -0.8186 29.7516 0
M  V30 4732 H  68.6341 -1.8624 29.5795 0
M  V30 4733 H  68.5416 -4.1488 28.1608 0
M  V30 4734 H  68.2160 -6.0870 30.2530 0
M  V30 4735 H  67.1769 -5.9223 27.4121 0
M  V30 4736 H  66.3386 -5.4955 28.8643 0
M  V30 4737 H  65.8455 -7.3994 30.5711 0
M  V30 4738 H  67.0140 -8.1121 26.5308 0
M  V30 4739 H  64.9319 -9.6692 30.7023 0
M  V30 4740 H  66.0952 -10.3779 26.6644 0
M  V30 4741 H  65.0504 -11.1652 28.7498 0
M  V30 4742 H  69.9787 -6.1579 27.1337 0
M  V30 4743 H  70.5477 -8.9943 27.4051 0
M  V30 4744 H  71.8037 -6.8727 25.6341 0
M  V30 4745 H  70.3555 -7.7377 23.8943 0
M  V30 4746 H  69.3878 -7.2462 25.2434 0
M  V30 4747 H  72.6468 -8.7744 24.3157 0
M  V30 4748 H  73.3140 -8.7704 25.9656 0
M  V30 4749 H  72.0070 -9.8996 25.5370 0
M  V30 4750 H  68.5954 -9.3756 24.3395 0
M  V30 4751 H  70.1953 -10.1060 24.6112 0
M  V30 4752 H  69.2007 -9.6009 25.9978 0
M  V30 4753 H  72.3784 -5.9610 28.0763 0
M  V30 4754 H  74.7734 -7.1645 28.9387 0
M  V30 4755 H  74.8881 -5.1572 30.5403 0
M  V30 4756 H  73.3285 -4.7036 29.9813 0
M  V30 4757 H  74.1831 -4.4882 27.6583 0
M  V30 4758 H  75.7862 -4.9885 28.2111 0
M  V30 4759 H  75.7949 -3.0378 29.7973 0
M  V30 4760 H  74.2550 -2.5199 29.1284 0
M  V30 4761 H  76.0537 -1.2684 28.0676 0
M  V30 4762 H  75.2970 -2.3134 26.8831 0
M  V30 4763 H  77.1140 -3.6699 26.8084 0
M  V30 4764 H  77.8529 -2.2247 27.0998 0
M  V30 4765 H  77.6331 -3.3012 28.3296 0
M  V30 4766 H  71.7908 -6.4948 30.8486 0
M  V30 4767 H  72.8417 -7.5974 33.2706 0
M  V30 4768 H  69.9576 -7.3327 32.3458 0
M  V30 4769 H  70.8652 -6.0747 33.0951 0
M  V30 4770 H  70.9236 -7.1754 35.2012 0
M  V30 4771 H  70.4880 -8.7348 34.4915 0
M  V30 4772 H  68.6552 -6.3134 34.4247 0
M  V30 4773 H  68.6227 -7.4954 35.7239 0
M  V30 4774 H  68.4356 -9.0330 33.4672 0
M  V30 4775 H  65.1411 -6.7337 33.9781 0
M  V30 4776 H  66.6580 -6.2620 34.7107 0
M  V30 4777 H  65.0163 -8.6485 32.7242 0
M  V30 4778 H  66.4375 -9.6429 32.4967 0
M  V30 4779 H  70.7257 -9.0381 30.7213 0
M  V30 4780 H  70.4490 -11.5244 32.1012 0
M  V30 4781 H  69.7210 -12.3827 29.8377 0
M  V30 4782 H  70.1298 -10.8028 29.1699 0
M  V30 4783 H  68.4976 -9.8831 30.2918 0
M  V30 4784 H  73.1252 -10.2547 30.2380 0
M  V30 4785 H  74.1606 -12.9230 29.6426 0
M  V30 4786 H  75.6917 -10.3052 29.5940 0
M  V30 4787 H  74.6260 -10.7973 28.3008 0
M  V30 4788 H  74.5749 -10.5188 32.2401 0
M  V30 4789 H  76.7987 -11.9795 33.4134 0
M  V30 4790 H  76.5087 -10.4133 35.3051 0
M  V30 4791 H  76.5901 -9.5653 33.7426 0
M  V30 4792 H  75.0211 -9.7920 34.5514 0
M  V30 4793 H  73.2991 -12.2159 33.6107 0
M  V30 4794 H  73.1998 -13.4101 36.2179 0
M  V30 4795 H  70.9577 -14.2044 35.4985 0
M  V30 4796 H  71.3021 -13.7585 33.8669 0
M  V30 4797 H  71.6467 -11.3487 34.7232 0
M  V30 4798 H  70.9837 -11.8951 36.2423 0
M  V30 4799 H  73.3868 -15.4782 36.9101 0
M  V30 4800 H  74.3545 -17.4780 34.9434 0
M  V30 4801 H  74.4167 -17.4694 37.9851 0
M  V30 4802 H  75.7419 -17.0231 36.9688 0
M  V30 4803 H  74.4895 -19.7494 36.6206 0
M  V30 4804 H  75.5609 -19.4677 37.9673 0
M  V30 4805 H  72.3119 -17.8883 33.9967 0
M  V30 4806 H  70.2308 -19.0180 35.7782 0
M  V30 4807 H  69.9876 -18.3930 32.8224 0
M  V30 4808 H  67.5824 -18.2835 33.3604 0
M  V30 4809 H  68.2805 -19.8691 33.7675 0
M  V30 4810 H  67.9491 -18.6857 35.0548 0
M  V30 4811 H  68.9780 -16.2404 33.4707 0
M  V30 4812 H  69.3967 -16.5618 35.1702 0
M  V30 4813 H  70.6852 -16.3450 33.9620 0
M  V30 4814 H  69.7457 -21.1432 35.7563 0
M  V30 4815 H  71.4265 -22.9142 34.1108 0
M  V30 4816 H  69.3766 -23.4974 36.2814 0
M  V30 4817 H  71.1042 -23.4038 36.5136 0
M  V30 4818 H  70.6422 -22.5519 32.0325 0
M  V30 4819 H  67.7971 -22.5755 31.4964 0
M  V30 4820 H  70.2077 -22.7820 29.6617 0
M  V30 4821 H  69.3375 -21.3367 30.0620 0
M  V30 4822 H  66.9505 -21.0592 29.2608 0
M  V30 4823 H  69.4286 -24.2688 27.9417 0
M  V30 4824 H  65.4536 -21.4379 27.3632 0
M  V30 4825 H  67.9333 -24.6436 26.0434 0
M  V30 4826 H  65.9407 -23.2286 25.7444 0
M  V30 4827 H  70.4314 -24.9953 31.0536 0
M  V30 4828 H  68.8200 -26.9197 29.7405 0
M  V30 4829 H  70.5073 -28.5657 30.4901 0
M  V30 4830 H  71.2609 -27.0862 29.8495 0
M  V30 4831 H  71.1810 -27.3549 31.6069 0
M  V30 4832 H  69.3621 -26.3755 33.2563 0
M  V30 4833 H  68.1592 -27.2152 35.0659 0
M  V30 4834 H  67.8147 -28.6291 34.1025 0
M  V30 4835 H  66.9005 -25.1989 33.4764 0
M  V30 4836 H  64.1919 -25.5014 34.3177 0
M  V30 4837 H  65.4688 -23.6286 32.2939 0
M  V30 4838 H  65.1966 -23.3045 33.9763 0
M  V30 4839 H  62.7376 -22.7643 34.7278 0
M  V30 4840 H  60.6251 -21.9442 33.5118 0
M  V30 4841 H  64.2518 -23.8958 30.0426 0
M  V30 4842 H  59.7617 -21.8353 30.7637 0
M  V30 4843 H  62.7449 -23.4164 28.1242 0
M  V30 4844 H  60.5525 -22.4139 28.4729 0
M  V30 4845 H  65.7311 -25.9584 31.0965 0
M  V30 4846 H  63.2971 -26.4411 29.7090 0
M  V30 4847 H  66.1438 -27.3518 29.1988 0
M  V30 4848 H  65.3810 -25.9732 28.5408 0
M  V30 4849 H  64.5278 -28.8293 27.9622 0
M  V30 4850 H  63.2098 -27.8381 26.1372 0
M  V30 4851 H  62.6825 -27.2522 27.7328 0
M  V30 4852 H  63.6799 -26.2125 26.6882 0
M  V30 4853 H  65.5532 -28.4721 25.7525 0
M  V30 4854 H  66.1373 -26.8788 26.2885 0
M  V30 4855 H  66.7470 -28.3582 27.0675 0
M  V30 4856 H  65.6410 -28.8156 31.1199 0
M  V30 4857 H  64.0566 -31.0700 30.3976 0
M  V30 4858 H  65.3826 -32.1805 32.3266 0
M  V30 4859 H  66.1725 -30.6549 32.5221 0
M  V30 4860 H  67.2232 -30.5987 29.8382 0
M  V30 4861 H  63.8225 -28.8506 33.1558 0
M  V30 4862 H  61.9622 -30.5522 34.5916 0
M  V30 4863 H  62.6676 -27.6139 34.7344 0
M  V30 4864 H  63.0513 -28.8958 35.8862 0
M  V30 4865 H  60.4376 -27.9071 35.3029 0
M  V30 4866 H  61.5858 -27.7953 32.3013 0
M  V30 4867 H  58.7484 -27.6962 32.4855 0
M  V30 4868 H  60.5197 -27.0045 30.1148 0
M  V30 4869 H  61.1454 -25.8414 31.9526 0
M  V30 4870 H  58.6847 -25.4656 29.5277 0
M  V30 4871 H  58.1238 -27.1544 29.5490 0
M  V30 4872 H  57.7346 -26.0704 30.9057 0
M  V30 4873 H  60.9096 -29.6619 30.4061 0
M  V30 4874 H  58.6352 -30.7148 28.9143 0
M  V30 4875 H  61.5258 -31.6381 29.0143 0
M  V30 4876 H  61.2344 -29.2880 28.2669 0
M  V30 4877 H  60.0772 -29.7916 27.0803 0
M  V30 4878 H  61.0053 -32.7335 26.8709 0
M  V30 4879 H  60.0171 -33.3824 28.2011 0
M  V30 4880 H  59.3035 -32.2405 27.0376 0
M  V30 4881 H  62.2710 -29.4391 26.0556 0
M  V30 4882 H  62.9959 -30.6357 27.1555 0
M  V30 4883 H  61.8070 -31.1530 25.9365 0
M  V30 4884 H  60.7892 -31.9430 31.5237 0
M  V30 4885 H  58.8443 -34.1882 31.8448 0
M  V30 4886 H  59.4620 -33.2933 33.2051 0
M  V30 4887 H  62.0565 -33.3408 31.2021 0
M  V30 4888 H  62.9209 -36.0858 31.7370 0
M  V30 4889 H  65.0151 -35.3820 30.6293 0
M  V30 4890 H  64.5199 -33.7489 30.6340 0
M  V30 4891 H  62.6936 -34.2045 29.0701 0
M  V30 4892 H  64.0173 -34.8752 27.1039 0
M  V30 4893 H  64.8944 -33.7207 28.1359 0
M  V30 4894 H  65.3128 -35.4499 28.1804 0
M  V30 4895 H  62.3871 -36.4439 28.0836 0
M  V30 4896 H  63.5974 -37.0990 29.2119 0
M  V30 4897 H  62.0671 -36.4371 29.8343 0
M  V30 4898 H  65.0701 -36.4692 32.7575 0
M  V30 4899 H  64.8961 -35.3779 35.4415 0
M  V30 4900 H  66.9941 -34.1227 35.5583 0
M  V30 4901 H  66.7371 -36.9753 35.9269 0
M  V30 4902 H  66.8757 -37.3377 34.2240 0
M  V30 4903 H  63.7918 -38.9750 36.2823 0
M  V30 4904 H  64.7501 -37.7046 37.0088 0
M  V30 4905 H  55.2598 -23.6482 11.6773 0
M  V30 4906 H  57.0928 -29.4374 12.1620 0
M  V30 4907 H  57.0588 -27.7788 12.7240 0
M  V30 4908 H  57.4431 -29.6456 14.4598 0
M  V30 4909 H  59.1787 -27.1951 14.2716 0
M  V30 4910 H  57.0379 -27.0263 15.1767 0
M  V30 4911 H  60.7182 -28.0166 15.7633 0
M  V30 4912 H  58.5931 -29.5463 16.9101 0
M  V30 4913 H  60.0542 -30.8105 15.4755 0
M  V30 4914 H  61.3821 -28.9596 12.4867 0
M  V30 4915 H  67.0664 -30.7302 14.3708 0
M  V30 4916 H  66.1763 -29.9573 13.0783 0
M  V30 4917 H  64.0098 -31.8207 17.5433 0
M  V30 4918 H  74.0254 -41.8970 5.1806 0
M  V30 4919 H  75.9708 -31.1278 2.0473 0
M  V30 4920 H  66.0083 -36.1498 20.6913 0
M  V30 4921 H  78.7153 -19.5676 8.3643 0
M  V30 4922 H  66.2564 -19.5370 12.2084 0
M  V30 4923 H  66.8064 -9.5803 6.8898 0
M  V30 4924 H  66.1616 -0.9322 25.6397 0
M  V30 END ATOM
M  V30 BEGIN BOND
M  V30 1 1 1 2
M  V30 2 1 1 2451
M  V30 3 1 1 2452
M  V30 4 1 2 3
M  V30 5 1 2 5
M  V30 6 1 2 2453
M  V30 7 2 3 4
M  V30 8 1 3 9
M  V30 9 1 5 6
M  V30 10 1 5 2454
M  V30 11 1 5 2455
M  V30 12 2 6 7
M  V30 13 1 6 8
M  V30 14 1 9 10
M  V30 15 1 9 2456
M  V30 16 1 10 11
M  V30 17 1 10 13
M  V30 18 1 10 2457
M  V30 19 2 11 12
M  V30 20 1 11 18
M  V30 21 1 13 14
M  V30 22 1 13 2458
M  V30 23 1 13 2459
M  V30 24 1 14 15
M  V30 25 1 14 2460
M  V30 26 1 14 2461
M  V30 27 2 15 16
M  V30 28 1 15 17
M  V30 29 1 18 19
M  V30 30 1 18 2462
M  V30 31 1 19 20
M  V30 32 1 19 22
M  V30 33 1 19 2463
M  V30 34 2 20 21
M  V30 35 1 20 27
M  V30 36 1 22 23
M  V30 37 1 22 2464
M  V30 38 1 22 2465
M  V30 39 1 23 24
M  V30 40 1 23 2466
M  V30 41 1 23 2467
M  V30 42 2 24 25
M  V30 43 1 24 26
M  V30 44 1 26 2468
M  V30 45 1 26 2469
M  V30 46 1 27 28
M  V30 47 1 27 2470
M  V30 48 1 28 29
M  V30 49 1 28 31
M  V30 50 1 28 2471
M  V30 51 2 29 30
M  V30 52 1 29 36
M  V30 53 1 31 32
M  V30 54 1 31 2472
M  V30 55 1 31 2473
M  V30 56 1 32 33
M  V30 57 1 32 2474
M  V30 58 1 32 2475
M  V30 59 2 33 34
M  V30 60 1 33 35
M  V30 61 1 35 2476
M  V30 62 1 35 2477
M  V30 63 1 36 37
M  V30 64 1 36 2478
M  V30 65 1 37 38
M  V30 66 1 37 40
M  V30 67 1 37 2479
M  V30 68 2 38 39
M  V30 69 1 38 47
M  V30 70 1 40 41
M  V30 71 1 40 2480
M  V30 72 1 40 2481
M  V30 73 1 41 42
M  V30 74 1 41 2482
M  V30 75 1 41 2483
M  V30 76 1 42 43
M  V30 77 1 42 2484
M  V30 78 1 42 2485
M  V30 79 1 43 44
M  V30 80 1 43 2486
M  V30 81 1 44 45
M  V30 82 2 44 46
M  V30 83 1 45 2487
M  V30 84 1 45 2488
M  V30 85 1 46 2489
M  V30 86 1 46 2490
M  V30 87 1 47 48
M  V30 88 1 47 2491
M  V30 89 1 48 49
M  V30 90 1 48 51
M  V30 91 1 48 2492
M  V30 92 2 49 50
M  V30 93 1 49 56
M  V30 94 1 51 52
M  V30 95 1 51 2493
M  V30 96 1 51 2494
M  V30 97 1 52 53
M  V30 98 1 52 2495
M  V30 99 1 52 2496
M  V30 100 1 53 54
M  V30 101 1 53 2497
M  V30 102 1 53 2498
M  V30 103 1 54 55
M  V30 104 1 54 2499
M  V30 105 1 54 2500
M  V30 106 1 55 2501
M  V30 107 1 55 2502
M  V30 108 1 55 2503
M  V30 109 1 56 57
M  V30 110 1 56 2504
M  V30 111 1 57 58
M  V30 112 1 57 60
M  V30 113 1 57 2505
M  V30 114 2 58 59
M  V30 115 1 58 67
M  V30 116 1 60 61
M  V30 117 1 60 2506
M  V30 118 1 60 2507
M  V30 119 1 61 62
M  V30 120 1 61 2508
M  V30 121 1 61 2509
M  V30 122 1 62 63
M  V30 123 1 62 2510
M  V30 124 1 62 2511
M  V30 125 1 63 64
M  V30 126 1 63 2512
M  V30 127 1 64 65
M  V30 128 2 64 66
M  V30 129 1 65 2513
M  V30 130 1 65 2514
M  V30 131 1 66 2515
M  V30 132 1 66 2516
M  V30 133 1 67 68
M  V30 134 1 67 2517
M  V30 135 1 68 69
M  V30 136 1 68 71
M  V30 137 1 68 2518
M  V30 138 2 69 70
M  V30 139 1 69 75
M  V30 140 1 71 72
M  V30 141 1 71 2519
M  V30 142 1 71 2520
M  V30 143 1 72 73
M  V30 144 1 72 74
M  V30 145 1 72 2521
M  V30 146 1 73 2522
M  V30 147 1 73 2523
M  V30 148 1 73 2524
M  V30 149 1 74 2525
M  V30 150 1 74 2526
M  V30 151 1 74 2527
M  V30 152 1 75 76
M  V30 153 1 75 2528
M  V30 154 1 76 77
M  V30 155 1 76 79
M  V30 156 1 76 2529
M  V30 157 2 77 78
M  V30 158 1 77 84
M  V30 159 1 79 80
M  V30 160 1 79 2530
M  V30 161 1 79 2531
M  V30 162 1 80 81
M  V30 163 1 80 2532
M  V30 164 1 80 2533
M  V30 165 2 81 82
M  V30 166 1 81 83
M  V30 167 1 84 85
M  V30 168 1 84 2534
M  V30 169 1 85 86
M  V30 170 1 85 88
M  V30 171 1 85 2535
M  V30 172 2 86 87
M  V30 173 1 86 89
M  V30 174 1 88 2536
M  V30 175 1 88 2537
M  V30 176 1 88 2538
M  V30 177 1 89 90
M  V30 178 1 89 2539
M  V30 179 1 90 91
M  V30 180 1 90 93
M  V30 181 1 90 2540
M  V30 182 2 91 92
M  V30 183 1 91 100
M  V30 184 1 93 94
M  V30 185 1 93 2541
M  V30 186 1 93 2542
M  V30 187 2 94 95
M  V30 188 1 94 96
M  V30 189 1 95 97
M  V30 190 1 95 2543
M  V30 191 2 96 98
M  V30 192 1 96 2544
M  V30 193 2 97 99
M  V30 194 1 97 2545
M  V30 195 1 98 99
M  V30 196 1 98 2546
M  V30 197 1 99 2547
M  V30 198 1 100 101
M  V30 199 1 100 2548
M  V30 200 1 101 102
M  V30 201 1 101 104
M  V30 202 1 101 2549
M  V30 203 2 102 103
M  V30 204 1 102 108
M  V30 205 1 104 105
M  V30 206 1 104 2550
M  V30 207 1 104 2551
M  V30 208 1 105 106
M  V30 209 1 105 107
M  V30 210 1 105 2552
M  V30 211 1 106 2553
M  V30 212 1 106 2554
M  V30 213 1 106 2555
M  V30 214 1 107 2556
M  V30 215 1 107 2557
M  V30 216 1 107 2558
M  V30 217 1 108 109
M  V30 218 1 108 2559
M  V30 219 1 109 110
M  V30 220 1 109 112
M  V30 221 1 109 2560
M  V30 222 2 110 111
M  V30 223 1 110 115
M  V30 224 1 112 113
M  V30 225 1 112 114
M  V30 226 1 112 2561
M  V30 227 1 113 2562
M  V30 228 1 114 2563
M  V30 229 1 114 2564
M  V30 230 1 114 2565
M  V30 231 1 115 116
M  V30 232 1 115 2566
M  V30 233 1 116 117
M  V30 234 1 116 119
M  V30 235 1 116 2567
M  V30 236 2 117 118
M  V30 237 1 117 124
M  V30 238 1 119 120
M  V30 239 1 119 2568
M  V30 240 1 119 2569
M  V30 241 1 120 121
M  V30 242 1 120 2570
M  V30 243 1 120 2571
M  V30 244 2 121 122
M  V30 245 1 121 123
M  V30 246 1 123 2572
M  V30 247 1 123 2573
M  V30 248 1 124 125
M  V30 249 1 124 2574
M  V30 250 1 125 126
M  V30 251 1 125 128
M  V30 252 1 125 2575
M  V30 253 2 126 127
M  V30 254 1 126 133
M  V30 255 1 128 129
M  V30 256 1 128 2576
M  V30 257 1 128 2577
M  V30 258 1 129 130
M  V30 259 1 129 2578
M  V30 260 1 129 2579
M  V30 261 1 130 131
M  V30 262 1 130 2580
M  V30 263 1 130 2581
M  V30 264 1 131 132
M  V30 265 1 131 2582
M  V30 266 1 131 2583
M  V30 267 1 132 2584
M  V30 268 1 132 2585
M  V30 269 1 132 2586
M  V30 270 1 133 134
M  V30 271 1 133 2587
M  V30 272 1 134 135
M  V30 273 1 134 137
M  V30 274 1 134 2588
M  V30 275 2 135 136
M  V30 276 1 135 142
M  V30 277 1 137 138
M  V30 278 1 137 2589
M  V30 279 1 137 2590
M  V30 280 1 138 139
M  V30 281 1 138 2591
M  V30 282 1 138 2592
M  V30 283 2 139 140
M  V30 284 1 139 141
M  V30 285 1 141 2593
M  V30 286 1 141 2594
M  V30 287 1 142 143
M  V30 288 1 142 2595
M  V30 289 1 143 144
M  V30 290 1 143 146
M  V30 291 1 143 2596
M  V30 292 2 144 145
M  V30 293 1 144 151
M  V30 294 1 146 147
M  V30 295 1 146 2597
M  V30 296 1 146 2598
M  V30 297 1 147 148
M  V30 298 1 147 2599
M  V30 299 1 147 2600
M  V30 300 1 148 149
M  V30 301 1 148 2601
M  V30 302 1 148 2602
M  V30 303 1 149 150
M  V30 304 1 149 2603
M  V30 305 1 149 2604
M  V30 306 1 150 2605
M  V30 307 1 150 2606
M  V30 308 1 150 2607
M  V30 309 1 151 152
M  V30 310 1 151 2608
M  V30 311 1 152 153
M  V30 312 1 152 155
M  V30 313 1 152 2609
M  V30 314 2 153 154
M  V30 315 1 153 158
M  V30 316 1 155 156
M  V30 317 1 155 157
M  V30 318 1 155 2610
M  V30 319 1 156 2611
M  V30 320 1 156 2612
M  V30 321 1 156 2613
M  V30 322 1 157 2614
M  V30 323 1 157 2615
M  V30 324 1 157 2616
M  V30 325 1 158 159
M  V30 326 1 158 2617
M  V30 327 1 159 160
M  V30 328 1 159 2618
M  V30 329 1 159 2619
M  V30 330 2 160 161
M  V30 331 1 160 162
M  V30 332 1 162 163
M  V30 333 1 162 2620
M  V30 334 1 163 164
M  V30 335 1 163 166
M  V30 336 1 163 2621
M  V30 337 2 164 165
M  V30 338 1 164 171
M  V30 339 1 166 167
M  V30 340 1 166 2622
M  V30 341 1 166 2623
M  V30 342 1 167 168
M  V30 343 1 167 2624
M  V30 344 1 167 2625
M  V30 345 2 168 169
M  V30 346 1 168 170
M  V30 347 1 171 172
M  V30 348 1 171 2626
M  V30 349 1 172 173
M  V30 350 1 172 175
M  V30 351 1 172 2627
M  V30 352 2 173 174
M  V30 353 1 173 179
M  V30 354 1 175 176
M  V30 355 1 175 2628
M  V30 356 1 175 2629
M  V30 357 1 176 177
M  V30 358 1 176 178
M  V30 359 1 176 2630
M  V30 360 1 177 2631
M  V30 361 1 177 2632
M  V30 362 1 177 2633
M  V30 363 1 178 2634
M  V30 364 1 178 2635
M  V30 365 1 178 2636
M  V30 366 1 179 180
M  V30 367 1 179 2637
M  V30 368 1 180 181
M  V30 369 1 180 183
M  V30 370 1 180 2638
M  V30 371 2 181 182
M  V30 372 1 181 188
M  V30 373 1 183 184
M  V30 374 1 183 2639
M  V30 375 1 183 2640
M  V30 376 1 184 185
M  V30 377 1 184 2641
M  V30 378 1 184 2642
M  V30 379 1 185 186
M  V30 380 1 185 2643
M  V30 381 1 185 2644
M  V30 382 1 186 187
M  V30 383 1 186 2645
M  V30 384 1 186 2646
M  V30 385 1 187 2647
M  V30 386 1 187 2648
M  V30 387 1 187 2649
M  V30 388 1 188 189
M  V30 389 1 188 2650
M  V30 390 1 189 190
M  V30 391 1 189 192
M  V30 392 1 189 2651
M  V30 393 2 190 191
M  V30 394 1 190 196
M  V30 395 1 192 193
M  V30 396 1 192 2652
M  V30 397 1 192 2653
M  V30 398 2 193 194
M  V30 399 1 193 195
M  V30 400 1 196 197
M  V30 401 1 196 2654
M  V30 402 1 197 198
M  V30 403 1 197 200
M  V30 404 1 197 2655
M  V30 405 2 198 199
M  V30 406 1 198 204
M  V30 407 1 200 201
M  V30 408 1 200 2656
M  V30 409 1 200 2657
M  V30 410 2 201 202
M  V30 411 1 201 203
M  V30 412 1 204 205
M  V30 413 1 204 2658
M  V30 414 1 205 206
M  V30 415 1 205 208
M  V30 416 1 205 2659
M  V30 417 2 206 207
M  V30 418 1 206 212
M  V30 419 1 208 209
M  V30 420 1 208 2660
M  V30 421 1 208 2661
M  V30 422 2 209 210
M  V30 423 1 209 211
M  V30 424 1 212 213
M  V30 425 1 212 2662
M  V30 426 1 213 214
M  V30 427 1 213 216
M  V30 428 1 213 2663
M  V30 429 2 214 215
M  V30 430 1 214 223
M  V30 431 1 216 217
M  V30 432 1 216 2664
M  V30 433 1 216 2665
M  V30 434 2 217 218
M  V30 435 1 217 219
M  V30 436 1 218 220
M  V30 437 1 218 2666
M  V30 438 2 219 221
M  V30 439 1 219 2667
M  V30 440 2 220 222
M  V30 441 1 220 2668
M  V30 442 1 221 222
M  V30 443 1 221 2669
M  V30 444 1 222 2670
M  V30 445 1 223 224
M  V30 446 1 223 2671
M  V30 447 1 224 225
M  V30 448 1 224 227
M  V30 449 1 224 2672
M  V30 450 2 225 226
M  V30 451 1 225 232
M  V30 452 1 227 228
M  V30 453 1 227 2673
M  V30 454 1 227 2674
M  V30 455 1 228 229
M  V30 456 1 228 2675
M  V30 457 1 228 2676
M  V30 458 2 229 230
M  V30 459 1 229 231
M  V30 460 1 232 233
M  V30 461 1 232 2677
M  V30 462 1 233 234
M  V30 463 1 233 236
M  V30 464 1 233 2678
M  V30 465 2 234 235
M  V30 466 1 234 241
M  V30 467 1 236 237
M  V30 468 1 236 2679
M  V30 469 1 236 2680
M  V30 470 1 237 238
M  V30 471 1 237 2681
M  V30 472 1 237 2682
M  V30 473 1 238 239
M  V30 474 1 238 2683
M  V30 475 1 238 2684
M  V30 476 1 239 240
M  V30 477 1 239 2685
M  V30 478 1 239 2686
M  V30 479 1 240 2687
M  V30 480 1 240 2688
M  V30 481 1 240 2689
M  V30 482 1 241 242
M  V30 483 1 241 2690
M  V30 484 1 242 243
M  V30 485 1 242 245
M  V30 486 1 242 2691
M  V30 487 2 243 244
M  V30 488 1 243 249
M  V30 489 1 245 246
M  V30 490 1 245 247
M  V30 491 1 245 2692
M  V30 492 1 246 248
M  V30 493 1 246 2693
M  V30 494 1 246 2694
M  V30 495 1 247 2695
M  V30 496 1 247 2696
M  V30 497 1 247 2697
M  V30 498 1 248 2698
M  V30 499 1 248 2699
M  V30 500 1 248 2700
M  V30 501 1 249 250
M  V30 502 1 249 2701
M  V30 503 1 250 251
M  V30 504 1 250 253
M  V30 505 1 250 2702
M  V30 506 2 251 252
M  V30 507 1 251 255
M  V30 508 1 253 254
M  V30 509 1 253 2703
M  V30 510 1 253 2704
M  V30 511 1 254 2705
M  V30 512 1 255 256
M  V30 513 1 255 2706
M  V30 514 1 256 257
M  V30 515 1 256 259
M  V30 516 1 256 2707
M  V30 517 2 257 258
M  V30 518 1 257 264
M  V30 519 1 259 260
M  V30 520 1 259 2708
M  V30 521 1 259 2709
M  V30 522 1 260 261
M  V30 523 1 260 2710
M  V30 524 1 260 2711
M  V30 525 2 261 262
M  V30 526 1 261 263
M  V30 527 1 264 265
M  V30 528 1 264 2712
M  V30 529 1 265 266
M  V30 530 1 265 268
M  V30 531 1 265 2713
M  V30 532 2 266 267
M  V30 533 1 266 272
M  V30 534 1 268 269
M  V30 535 1 268 2714
M  V30 536 1 268 2715
M  V30 537 1 269 270
M  V30 538 1 269 271
M  V30 539 1 269 2716
M  V30 540 1 270 2717
M  V30 541 1 270 2718
M  V30 542 1 270 2719
M  V30 543 1 271 2720
M  V30 544 1 271 2721
M  V30 545 1 271 2722
M  V30 546 1 272 273
M  V30 547 1 272 2723
M  V30 548 1 273 274
M  V30 549 1 273 2724
M  V30 550 1 273 2725
M  V30 551 2 274 275
M  V30 552 1 274 276
M  V30 553 1 276 277
M  V30 554 1 276 2726
M  V30 555 1 277 278
M  V30 556 1 277 280
M  V30 557 1 277 2727
M  V30 558 2 278 279
M  V30 559 1 278 281
M  V30 560 1 280 2728
M  V30 561 1 280 2729
M  V30 562 1 280 2730
M  V30 563 1 281 282
M  V30 564 1 281 2731
M  V30 565 1 282 283
M  V30 566 1 282 2732
M  V30 567 1 282 2733
M  V30 568 2 283 284
M  V30 569 1 283 285
M  V30 570 1 285 286
M  V30 571 1 285 2734
M  V30 572 1 286 287
M  V30 573 1 286 289
M  V30 574 1 286 2735
M  V30 575 2 287 288
M  V30 576 1 287 293
M  V30 577 1 289 290
M  V30 578 1 289 2736
M  V30 579 1 289 2737
M  V30 580 2 290 291
M  V30 581 1 290 292
M  V30 582 1 292 2738
M  V30 583 1 292 2739
M  V30 584 1 293 294
M  V30 585 1 293 2740
M  V30 586 1 294 295
M  V30 587 1 294 2741
M  V30 588 1 294 2742
M  V30 589 2 295 296
M  V30 590 1 295 297
M  V30 591 1 297 298
M  V30 592 1 297 2743
M  V30 593 1 298 299
M  V30 594 1 298 2744
M  V30 595 1 298 2745
M  V30 596 2 299 300
M  V30 597 1 299 301
M  V30 598 1 301 302
M  V30 599 1 301 2746
M  V30 600 1 302 303
M  V30 601 1 302 305
M  V30 602 1 302 2747
M  V30 603 2 303 304
M  V30 604 1 303 308
M  V30 605 1 305 306
M  V30 606 1 305 307
M  V30 607 1 305 2748
M  V30 608 1 306 2749
M  V30 609 1 306 2750
M  V30 610 1 306 2751
M  V30 611 1 307 2752
M  V30 612 1 307 2753
M  V30 613 1 307 2754
M  V30 614 1 308 309
M  V30 615 1 308 2755
M  V30 616 1 309 310
M  V30 617 1 309 312
M  V30 618 1 309 2756
M  V30 619 2 310 311
M  V30 620 1 310 315
M  V30 621 1 312 313
M  V30 622 1 312 314
M  V30 623 1 312 2757
M  V30 624 1 313 2758
M  V30 625 1 313 2759
M  V30 626 1 313 2760
M  V30 627 1 314 2761
M  V30 628 1 314 2762
M  V30 629 1 314 2763
M  V30 630 1 315 316
M  V30 631 1 315 2764
M  V30 632 1 316 317
M  V30 633 1 316 319
M  V30 634 1 316 2765
M  V30 635 2 317 318
M  V30 636 1 317 326
M  V30 637 1 319 320
M  V30 638 1 319 2766
M  V30 639 1 319 2767
M  V30 640 2 320 321
M  V30 641 1 320 322
M  V30 642 1 321 323
M  V30 643 1 321 2768
M  V30 644 2 322 324
M  V30 645 1 322 2769
M  V30 646 2 323 325
M  V30 647 1 323 2770
M  V30 648 1 324 325
M  V30 649 1 324 2771
M  V30 650 1 325 2772
M  V30 651 1 326 327
M  V30 652 1 326 2773
M  V30 653 1 327 328
M  V30 654 1 327 330
M  V30 655 1 327 2774
M  V30 656 2 328 329
M  V30 657 1 328 335
M  V30 658 1 330 331
M  V30 659 1 330 2775
M  V30 660 1 330 2776
M  V30 661 1 331 332
M  V30 662 1 331 2777
M  V30 663 1 331 2778
M  V30 664 1 332 333
M  V30 665 1 332 2779
M  V30 666 1 332 2780
M  V30 667 1 333 334
M  V30 668 1 333 2781
M  V30 669 1 333 2782
M  V30 670 1 334 2783
M  V30 671 1 334 2784
M  V30 672 1 334 2785
M  V30 673 1 335 336
M  V30 674 1 335 2786
M  V30 675 1 336 337
M  V30 676 1 336 339
M  V30 677 1 336 2787
M  V30 678 2 337 338
M  V30 679 1 337 342
M  V30 680 1 339 340
M  V30 681 1 339 341
M  V30 682 1 339 2788
M  V30 683 1 340 2789
M  V30 684 1 340 2790
M  V30 685 1 340 2791
M  V30 686 1 341 2792
M  V30 687 1 341 2793
M  V30 688 1 341 2794
M  V30 689 1 342 343
M  V30 690 1 342 2795
M  V30 691 1 343 344
M  V30 692 1 343 346
M  V30 693 1 343 2796
M  V30 694 2 344 345
M  V30 695 1 344 348
M  V30 696 1 346 347
M  V30 697 1 346 2797
M  V30 698 1 346 2798
M  V30 699 1 347 2799
M  V30 700 1 348 349
M  V30 701 1 348 2800
M  V30 702 1 349 350
M  V30 703 1 349 352
M  V30 704 1 349 2801
M  V30 705 2 350 351
M  V30 706 1 350 358
M  V30 707 1 352 353
M  V30 708 1 352 2802
M  V30 709 1 352 2803
M  V30 710 1 353 354
M  V30 711 2 353 355
M  V30 712 2 354 356
M  V30 713 1 355 357
M  V30 714 1 355 2804
M  V30 715 1 356 357
M  V30 716 1 356 2805
M  V30 717 1 357 4918
M  V30 718 1 358 359
M  V30 719 1 358 2806
M  V30 720 1 359 360
M  V30 721 1 359 362
M  V30 722 1 359 2807
M  V30 723 2 360 361
M  V30 724 1 360 367
M  V30 725 1 362 363
M  V30 726 1 362 2808
M  V30 727 1 362 2809
M  V30 728 1 363 364
M  V30 729 1 363 2810
M  V30 730 1 363 2811
M  V30 731 1 364 365
M  V30 732 1 364 2812
M  V30 733 1 364 2813
M  V30 734 1 365 366
M  V30 735 1 365 2814
M  V30 736 1 365 2815
M  V30 737 1 366 2816
M  V30 738 1 366 2817
M  V30 739 1 366 2818
M  V30 740 1 367 368
M  V30 741 1 367 373
M  V30 742 1 368 369
M  V30 743 1 368 371
M  V30 744 1 368 2819
M  V30 745 2 369 370
M  V30 746 1 369 374
M  V30 747 1 371 372
M  V30 748 1 371 2820
M  V30 749 1 371 2821
M  V30 750 1 372 373
M  V30 751 1 372 2822
M  V30 752 1 372 2823
M  V30 753 1 373 2824
M  V30 754 1 373 2825
M  V30 755 1 374 375
M  V30 756 1 374 2826
M  V30 757 1 375 376
M  V30 758 1 375 378
M  V30 759 1 375 2827
M  V30 760 2 376 377
M  V30 761 1 376 380
M  V30 762 1 378 379
M  V30 763 1 378 2828
M  V30 764 1 378 2829
M  V30 765 1 379 2830
M  V30 766 1 380 381
M  V30 767 1 380 2831
M  V30 768 1 381 382
M  V30 769 1 381 2832
M  V30 770 1 381 2833
M  V30 771 2 382 383
M  V30 772 1 382 384
M  V30 773 1 384 385
M  V30 774 1 384 2834
M  V30 775 1 385 386
M  V30 776 1 385 388
M  V30 777 1 385 2835
M  V30 778 2 386 387
M  V30 779 1 386 392
M  V30 780 1 388 389
M  V30 781 1 388 2836
M  V30 782 1 388 2837
M  V30 783 1 389 390
M  V30 784 1 389 391
M  V30 785 1 389 2838
M  V30 786 1 390 2839
M  V30 787 1 390 2840
M  V30 788 1 390 2841
M  V30 789 1 391 2842
M  V30 790 1 391 2843
M  V30 791 1 391 2844
M  V30 792 1 392 393
M  V30 793 1 392 2845
M  V30 794 1 393 394
M  V30 795 1 393 396
M  V30 796 1 393 2846
M  V30 797 2 394 395
M  V30 798 1 394 399
M  V30 799 1 396 397
M  V30 800 1 396 398
M  V30 801 1 396 2847
M  V30 802 1 397 2848
M  V30 803 1 397 2849
M  V30 804 1 397 2850
M  V30 805 1 398 2851
M  V30 806 1 398 2852
M  V30 807 1 398 2853
M  V30 808 1 399 400
M  V30 809 1 399 2854
M  V30 810 1 400 401
M  V30 811 1 400 403
M  V30 812 1 400 2855
M  V30 813 2 401 402
M  V30 814 1 401 407
M  V30 815 1 403 404
M  V30 816 1 403 2856
M  V30 817 1 403 2857
M  V30 818 1 404 405
M  V30 819 1 404 2858
M  V30 820 1 404 2859
M  V30 821 1 405 406
M  V30 822 1 406 2860
M  V30 823 1 406 2861
M  V30 824 1 406 2862
M  V30 825 1 407 408
M  V30 826 1 407 2863
M  V30 827 1 408 409
M  V30 828 1 408 411
M  V30 829 1 408 2864
M  V30 830 2 409 410
M  V30 831 1 409 412
M  V30 832 1 411 2865
M  V30 833 1 411 2866
M  V30 834 1 411 2867
M  V30 835 1 412 413
M  V30 836 1 412 2868
M  V30 837 1 413 414
M  V30 838 1 413 416
M  V30 839 1 413 2869
M  V30 840 2 414 415
M  V30 841 1 414 423
M  V30 842 1 416 417
M  V30 843 1 416 2870
M  V30 844 1 416 2871
M  V30 845 1 417 418
M  V30 846 1 417 2872
M  V30 847 1 417 2873
M  V30 848 1 418 419
M  V30 849 1 418 2874
M  V30 850 1 418 2875
M  V30 851 1 419 420
M  V30 852 1 419 2876
M  V30 853 1 420 421
M  V30 854 2 420 422
M  V30 855 1 421 2877
M  V30 856 1 421 2878
M  V30 857 1 422 2879
M  V30 858 1 422 2880
M  V30 859 1 423 424
M  V30 860 1 423 2881
M  V30 861 1 424 425
M  V30 862 1 424 427
M  V30 863 1 424 2882
M  V30 864 2 425 426
M  V30 865 1 425 432
M  V30 866 1 427 428
M  V30 867 1 427 2883
M  V30 868 1 427 2884
M  V30 869 1 428 429
M  V30 870 1 428 2885
M  V30 871 1 428 2886
M  V30 872 1 429 430
M  V30 873 1 429 2887
M  V30 874 1 429 2888
M  V30 875 1 430 431
M  V30 876 1 430 2889
M  V30 877 1 430 2890
M  V30 878 1 431 2891
M  V30 879 1 431 2892
M  V30 880 1 431 2893
M  V30 881 1 432 433
M  V30 882 1 432 2894
M  V30 883 1 433 434
M  V30 884 1 433 436
M  V30 885 1 433 2895
M  V30 886 2 434 435
M  V30 887 1 434 440
M  V30 888 1 436 437
M  V30 889 1 436 2896
M  V30 890 1 436 2897
M  V30 891 1 437 438
M  V30 892 1 437 439
M  V30 893 1 437 2898
M  V30 894 1 438 2899
M  V30 895 1 438 2900
M  V30 896 1 438 2901
M  V30 897 1 439 2902
M  V30 898 1 439 2903
M  V30 899 1 439 2904
M  V30 900 1 440 441
M  V30 901 1 440 2905
M  V30 902 1 441 442
M  V30 903 1 441 444
M  V30 904 1 441 2906
M  V30 905 2 442 443
M  V30 906 1 442 448
M  V30 907 1 444 445
M  V30 908 1 444 446
M  V30 909 1 444 2907
M  V30 910 1 445 447
M  V30 911 1 445 2908
M  V30 912 1 445 2909
M  V30 913 1 446 2910
M  V30 914 1 446 2911
M  V30 915 1 446 2912
M  V30 916 1 447 2913
M  V30 917 1 447 2914
M  V30 918 1 447 2915
M  V30 919 1 448 449
M  V30 920 1 448 2916
M  V30 921 1 449 450
M  V30 922 1 449 452
M  V30 923 1 449 2917
M  V30 924 2 450 451
M  V30 925 1 450 458
M  V30 926 1 452 453
M  V30 927 1 452 2918
M  V30 928 1 452 2919
M  V30 929 1 453 454
M  V30 930 2 453 455
M  V30 931 1 454 456
M  V30 932 1 454 2920
M  V30 933 1 455 457
M  V30 934 1 455 2921
M  V30 935 2 456 457
M  V30 936 1 456 2922
M  V30 937 1 458 459
M  V30 938 1 458 2923
M  V30 939 1 459 460
M  V30 940 1 459 462
M  V30 941 1 459 2924
M  V30 942 2 460 461
M  V30 943 1 460 466
M  V30 944 1 462 463
M  V30 945 1 462 2925
M  V30 946 1 462 2926
M  V30 947 1 463 464
M  V30 948 1 463 465
M  V30 949 1 463 2927
M  V30 950 1 464 2928
M  V30 951 1 464 2929
M  V30 952 1 464 2930
M  V30 953 1 465 2931
M  V30 954 1 465 2932
M  V30 955 1 465 2933
M  V30 956 1 466 467
M  V30 957 1 466 2934
M  V30 958 1 467 468
M  V30 959 1 467 470
M  V30 960 1 467 2935
M  V30 961 2 468 469
M  V30 962 1 468 475
M  V30 963 1 470 471
M  V30 964 1 470 2936
M  V30 965 1 470 2937
M  V30 966 1 471 472
M  V30 967 1 471 2938
M  V30 968 1 471 2939
M  V30 969 2 472 473
M  V30 970 1 472 474
M  V30 971 1 475 476
M  V30 972 1 475 2940
M  V30 973 1 476 477
M  V30 974 1 476 479
M  V30 975 1 476 2941
M  V30 976 2 477 478
M  V30 977 1 477 483
M  V30 978 1 479 480
M  V30 979 1 479 481
M  V30 980 1 479 2942
M  V30 981 1 480 482
M  V30 982 1 480 2943
M  V30 983 1 480 2944
M  V30 984 1 481 2945
M  V30 985 1 481 2946
M  V30 986 1 481 2947
M  V30 987 1 482 2948
M  V30 988 1 482 2949
M  V30 989 1 482 2950
M  V30 990 1 483 484
M  V30 991 1 483 2951
M  V30 992 1 484 485
M  V30 993 1 484 487
M  V30 994 1 484 2952
M  V30 995 2 485 486
M  V30 996 1 485 492
M  V30 997 1 487 488
M  V30 998 1 487 2953
M  V30 999 1 487 2954
M  V30 1000 1 488 489
M  V30 1001 1 488 2955
M  V30 1002 1 488 2956
M  V30 1003 1 489 490
M  V30 1004 1 489 2957
M  V30 1005 1 489 2958
M  V30 1006 1 490 491
M  V30 1007 1 490 2959
M  V30 1008 1 490 2960
M  V30 1009 1 491 2961
M  V30 1010 1 491 2962
M  V30 1011 1 491 2963
M  V30 1012 1 492 493
M  V30 1013 1 492 498
M  V30 1014 1 493 494
M  V30 1015 1 493 496
M  V30 1016 1 493 2964
M  V30 1017 2 494 495
M  V30 1018 1 494 499
M  V30 1019 1 496 497
M  V30 1020 1 496 2965
M  V30 1021 1 496 2966
M  V30 1022 1 497 498
M  V30 1023 1 497 2967
M  V30 1024 1 497 2968
M  V30 1025 1 498 2969
M  V30 1026 1 498 2970
M  V30 1027 1 499 500
M  V30 1028 1 499 2971
M  V30 1029 1 500 501
M  V30 1030 1 500 503
M  V30 1031 1 500 2972
M  V30 1032 2 501 502
M  V30 1033 1 501 504
M  V30 1034 1 503 2973
M  V30 1035 1 503 2974
M  V30 1036 1 503 2975
M  V30 1037 1 504 505
M  V30 1038 1 504 2976
M  V30 1039 1 505 506
M  V30 1040 1 505 508
M  V30 1041 1 505 2977
M  V30 1042 2 506 507
M  V30 1043 1 506 512
M  V30 1044 1 508 509
M  V30 1045 1 508 510
M  V30 1046 1 508 2978
M  V30 1047 1 509 511
M  V30 1048 1 509 2979
M  V30 1049 1 509 2980
M  V30 1050 1 510 2981
M  V30 1051 1 510 2982
M  V30 1052 1 510 2983
M  V30 1053 1 511 2984
M  V30 1054 1 511 2985
M  V30 1055 1 511 2986
M  V30 1056 1 512 513
M  V30 1057 1 512 2987
M  V30 1058 1 513 514
M  V30 1059 1 513 516
M  V30 1060 1 513 2988
M  V30 1061 2 514 515
M  V30 1062 1 514 523
M  V30 1063 1 516 517
M  V30 1064 1 516 2989
M  V30 1065 1 516 2990
M  V30 1066 1 517 518
M  V30 1067 1 517 2991
M  V30 1068 1 517 2992
M  V30 1069 1 518 519
M  V30 1070 1 518 2993
M  V30 1071 1 518 2994
M  V30 1072 1 519 520
M  V30 1073 1 519 2995
M  V30 1074 1 520 521
M  V30 1075 2 520 522
M  V30 1076 1 521 2996
M  V30 1077 1 521 2997
M  V30 1078 1 522 2998
M  V30 1079 1 522 2999
M  V30 1080 1 523 524
M  V30 1081 1 523 3000
M  V30 1082 1 524 525
M  V30 1083 1 524 527
M  V30 1084 1 524 3001
M  V30 1085 2 525 526
M  V30 1086 1 525 531
M  V30 1087 1 527 528
M  V30 1088 1 527 3002
M  V30 1089 1 527 3003
M  V30 1090 2 528 529
M  V30 1091 1 528 530
M  V30 1092 1 530 3004
M  V30 1093 1 530 3005
M  V30 1094 1 531 532
M  V30 1095 1 531 3006
M  V30 1096 1 532 533
M  V30 1097 1 532 535
M  V30 1098 1 532 3007
M  V30 1099 2 533 534
M  V30 1100 1 533 540
M  V30 1101 1 535 536
M  V30 1102 1 535 3008
M  V30 1103 1 535 3009
M  V30 1104 1 536 537
M  V30 1105 1 536 3010
M  V30 1106 1 536 3011
M  V30 1107 2 537 538
M  V30 1108 1 537 539
M  V30 1109 1 539 3012
M  V30 1110 1 539 3013
M  V30 1111 1 540 541
M  V30 1112 1 540 3014
M  V30 1113 1 541 542
M  V30 1114 1 541 544
M  V30 1115 1 541 3015
M  V30 1116 2 542 543
M  V30 1117 1 542 548
M  V30 1118 1 544 545
M  V30 1119 1 544 546
M  V30 1120 1 544 3016
M  V30 1121 1 545 547
M  V30 1122 1 545 3017
M  V30 1123 1 545 3018
M  V30 1124 1 546 3019
M  V30 1125 1 546 3020
M  V30 1126 1 546 3021
M  V30 1127 1 547 3022
M  V30 1128 1 547 3023
M  V30 1129 1 547 3024
M  V30 1130 1 548 549
M  V30 1131 1 548 3025
M  V30 1132 1 549 550
M  V30 1133 1 549 552
M  V30 1134 1 549 3026
M  V30 1135 2 550 551
M  V30 1136 1 550 556
M  V30 1137 1 552 553
M  V30 1138 1 552 554
M  V30 1139 1 552 3027
M  V30 1140 1 553 555
M  V30 1141 1 553 3028
M  V30 1142 1 553 3029
M  V30 1143 1 554 3030
M  V30 1144 1 554 3031
M  V30 1145 1 554 3032
M  V30 1146 1 555 3033
M  V30 1147 1 555 3034
M  V30 1148 1 555 3035
M  V30 1149 1 556 557
M  V30 1150 1 556 3036
M  V30 1151 1 557 558
M  V30 1152 1 557 560
M  V30 1153 1 557 3037
M  V30 1154 2 558 559
M  V30 1155 1 558 567
M  V30 1156 1 560 561
M  V30 1157 1 560 3038
M  V30 1158 1 560 3039
M  V30 1159 1 561 562
M  V30 1160 1 561 3040
M  V30 1161 1 561 3041
M  V30 1162 1 562 563
M  V30 1163 1 562 3042
M  V30 1164 1 562 3043
M  V30 1165 1 563 564
M  V30 1166 1 563 3044
M  V30 1167 1 564 565
M  V30 1168 2 564 566
M  V30 1169 1 565 3045
M  V30 1170 1 565 3046
M  V30 1171 1 566 3047
M  V30 1172 1 566 3048
M  V30 1173 1 567 568
M  V30 1174 1 567 3049
M  V30 1175 1 568 569
M  V30 1176 1 568 571
M  V30 1177 1 568 3050
M  V30 1178 2 569 570
M  V30 1179 1 569 576
M  V30 1180 1 571 572
M  V30 1181 1 571 3051
M  V30 1182 1 571 3052
M  V30 1183 1 572 573
M  V30 1184 1 572 3053
M  V30 1185 1 572 3054
M  V30 1186 2 573 574
M  V30 1187 1 573 575
M  V30 1188 1 576 577
M  V30 1189 1 576 3055
M  V30 1190 1 577 578
M  V30 1191 1 577 580
M  V30 1192 1 577 3056
M  V30 1193 2 578 579
M  V30 1194 1 578 584
M  V30 1195 1 580 581
M  V30 1196 1 580 3057
M  V30 1197 1 580 3058
M  V30 1198 1 581 582
M  V30 1199 1 581 583
M  V30 1200 1 581 3059
M  V30 1201 1 582 3060
M  V30 1202 1 582 3061
M  V30 1203 1 582 3062
M  V30 1204 1 583 3063
M  V30 1205 1 583 3064
M  V30 1206 1 583 3065
M  V30 1207 1 584 585
M  V30 1208 1 584 3066
M  V30 1209 1 585 586
M  V30 1210 1 585 588
M  V30 1211 1 585 3067
M  V30 1212 2 586 587
M  V30 1213 1 586 593
M  V30 1214 1 588 589
M  V30 1215 1 588 3068
M  V30 1216 1 588 3069
M  V30 1217 1 589 590
M  V30 1218 1 589 3070
M  V30 1219 1 589 3071
M  V30 1220 2 590 591
M  V30 1221 1 590 592
M  V30 1222 1 592 3072
M  V30 1223 1 592 3073
M  V30 1224 1 593 594
M  V30 1225 1 593 3074
M  V30 1226 1 594 595
M  V30 1227 1 594 597
M  V30 1228 1 594 3075
M  V30 1229 2 595 596
M  V30 1230 1 595 600
M  V30 1231 1 597 598
M  V30 1232 1 597 599
M  V30 1233 1 597 3076
M  V30 1234 1 598 3077
M  V30 1235 1 598 3078
M  V30 1236 1 598 3079
M  V30 1237 1 599 3080
M  V30 1238 1 599 3081
M  V30 1239 1 599 3082
M  V30 1240 1 600 601
M  V30 1241 1 600 3083
M  V30 1242 1 601 602
M  V30 1243 1 601 604
M  V30 1244 1 601 3084
M  V30 1245 2 602 603
M  V30 1246 1 602 608
M  V30 1247 1 604 605
M  V30 1248 1 604 3085
M  V30 1249 1 604 3086
M  V30 1250 1 605 606
M  V30 1251 1 605 607
M  V30 1252 1 605 3087
M  V30 1253 1 606 3088
M  V30 1254 1 606 3089
M  V30 1255 1 606 3090
M  V30 1256 1 607 3091
M  V30 1257 1 607 3092
M  V30 1258 1 607 3093
M  V30 1259 1 608 609
M  V30 1260 1 608 3094
M  V30 1261 1 609 610
M  V30 1262 1 609 612
M  V30 1263 1 609 3095
M  V30 1264 2 610 611
M  V30 1265 1 610 618
M  V30 1266 1 612 613
M  V30 1267 1 612 3096
M  V30 1268 1 612 3097
M  V30 1269 1 613 614
M  V30 1270 2 613 615
M  V30 1271 2 614 616
M  V30 1272 1 615 617
M  V30 1273 1 615 3098
M  V30 1274 1 616 617
M  V30 1275 1 616 3099
M  V30 1276 1 617 4919
M  V30 1277 1 618 619
M  V30 1278 1 618 3100
M  V30 1279 1 619 620
M  V30 1280 1 619 622
M  V30 1281 1 619 3101
M  V30 1282 2 620 621
M  V30 1283 1 620 627
M  V30 1284 1 622 623
M  V30 1285 1 622 3102
M  V30 1286 1 622 3103
M  V30 1287 1 623 624
M  V30 1288 1 623 3104
M  V30 1289 1 623 3105
M  V30 1290 2 624 625
M  V30 1291 1 624 626
M  V30 1292 1 627 628
M  V30 1293 1 627 3106
M  V30 1294 1 628 629
M  V30 1295 1 628 631
M  V30 1296 1 628 3107
M  V30 1297 2 629 630
M  V30 1298 1 629 633
M  V30 1299 1 631 632
M  V30 1300 1 631 3108
M  V30 1301 1 631 3109
M  V30 1302 1 632 3110
M  V30 1303 1 633 634
M  V30 1304 1 633 3111
M  V30 1305 1 634 635
M  V30 1306 1 634 637
M  V30 1307 1 634 3112
M  V30 1308 2 635 636
M  V30 1309 1 635 641
M  V30 1310 1 637 638
M  V30 1311 1 637 3113
M  V30 1312 1 637 3114
M  V30 1313 2 638 639
M  V30 1314 1 638 640
M  V30 1315 1 640 3115
M  V30 1316 1 640 3116
M  V30 1317 1 641 642
M  V30 1318 1 641 3117
M  V30 1319 1 642 643
M  V30 1320 1 642 645
M  V30 1321 1 642 3118
M  V30 1322 2 643 644
M  V30 1323 1 643 647
M  V30 1324 1 645 646
M  V30 1325 1 645 3119
M  V30 1326 1 645 3120
M  V30 1327 1 646 3121
M  V30 1328 1 647 648
M  V30 1329 1 647 653
M  V30 1330 1 648 649
M  V30 1331 1 648 651
M  V30 1332 1 648 3122
M  V30 1333 2 649 650
M  V30 1334 1 649 654
M  V30 1335 1 651 652
M  V30 1336 1 651 3123
M  V30 1337 1 651 3124
M  V30 1338 1 652 653
M  V30 1339 1 652 3125
M  V30 1340 1 652 3126
M  V30 1341 1 653 3127
M  V30 1342 1 653 3128
M  V30 1343 1 654 655
M  V30 1344 1 654 3129
M  V30 1345 1 655 656
M  V30 1346 1 655 658
M  V30 1347 1 655 3130
M  V30 1348 2 656 657
M  V30 1349 1 656 666
M  V30 1350 1 658 659
M  V30 1351 1 658 3131
M  V30 1352 1 658 3132
M  V30 1353 2 659 660
M  V30 1354 1 659 661
M  V30 1355 1 660 662
M  V30 1356 1 660 3133
M  V30 1357 2 661 663
M  V30 1358 1 661 3134
M  V30 1359 2 662 664
M  V30 1360 1 662 3135
M  V30 1361 1 663 664
M  V30 1362 1 663 3136
M  V30 1363 1 664 665
M  V30 1364 1 665 3137
M  V30 1365 1 666 667
M  V30 1366 1 666 3138
M  V30 1367 1 667 668
M  V30 1368 1 667 670
M  V30 1369 1 667 3139
M  V30 1370 2 668 669
M  V30 1371 1 668 674
M  V30 1372 1 670 671
M  V30 1373 1 670 672
M  V30 1374 1 670 3140
M  V30 1375 1 671 673
M  V30 1376 1 671 3141
M  V30 1377 1 671 3142
M  V30 1378 1 672 3143
M  V30 1379 1 672 3144
M  V30 1380 1 672 3145
M  V30 1381 1 673 3146
M  V30 1382 1 673 3147
M  V30 1383 1 673 3148
M  V30 1384 1 674 675
M  V30 1385 1 674 3149
M  V30 1386 1 675 676
M  V30 1387 1 675 678
M  V30 1388 1 675 3150
M  V30 1389 2 676 677
M  V30 1390 1 676 681
M  V30 1391 1 678 679
M  V30 1392 1 678 680
M  V30 1393 1 678 3151
M  V30 1394 1 679 3152
M  V30 1395 1 679 3153
M  V30 1396 1 679 3154
M  V30 1397 1 680 3155
M  V30 1398 1 680 3156
M  V30 1399 1 680 3157
M  V30 1400 1 681 682
M  V30 1401 1 681 3158
M  V30 1402 1 682 683
M  V30 1403 1 682 3159
M  V30 1404 1 682 3160
M  V30 1405 2 683 684
M  V30 1406 1 683 685
M  V30 1407 1 685 686
M  V30 1408 1 685 3161
M  V30 1409 1 686 687
M  V30 1410 1 686 689
M  V30 1411 1 686 3162
M  V30 1412 2 687 688
M  V30 1413 1 687 696
M  V30 1414 1 689 690
M  V30 1415 1 689 3163
M  V30 1416 1 689 3164
M  V30 1417 2 690 691
M  V30 1418 1 690 692
M  V30 1419 1 691 693
M  V30 1420 1 691 3165
M  V30 1421 2 692 694
M  V30 1422 1 692 3166
M  V30 1423 2 693 695
M  V30 1424 1 693 3167
M  V30 1425 1 694 695
M  V30 1426 1 694 3168
M  V30 1427 1 695 3169
M  V30 1428 1 696 697
M  V30 1429 1 696 3170
M  V30 1430 1 697 698
M  V30 1431 1 697 700
M  V30 1432 1 697 3171
M  V30 1433 2 698 699
M  V30 1434 1 698 708
M  V30 1435 1 700 701
M  V30 1436 1 700 3172
M  V30 1437 1 700 3173
M  V30 1438 2 701 702
M  V30 1439 1 701 703
M  V30 1440 1 702 704
M  V30 1441 1 702 3174
M  V30 1442 2 703 705
M  V30 1443 1 703 3175
M  V30 1444 2 704 706
M  V30 1445 1 704 3176
M  V30 1446 1 705 706
M  V30 1447 1 705 3177
M  V30 1448 1 706 707
M  V30 1449 1 707 3178
M  V30 1450 1 708 709
M  V30 1451 1 708 3179
M  V30 1452 1 709 710
M  V30 1453 1 709 3180
M  V30 1454 1 709 3181
M  V30 1455 2 710 711
M  V30 1456 1 710 712
M  V30 1457 1 712 713
M  V30 1458 1 712 3182
M  V30 1459 1 713 714
M  V30 1460 1 713 716
M  V30 1461 1 713 3183
M  V30 1462 2 714 715
M  V30 1463 1 714 717
M  V30 1464 1 716 3184
M  V30 1465 1 716 3185
M  V30 1466 1 716 3186
M  V30 1467 1 717 718
M  V30 1468 1 717 3187
M  V30 1469 1 718 719
M  V30 1470 1 718 721
M  V30 1471 1 718 3188
M  V30 1472 2 719 720
M  V30 1473 1 719 728
M  V30 1474 1 721 722
M  V30 1475 1 721 3189
M  V30 1476 1 721 3190
M  V30 1477 2 722 723
M  V30 1478 1 722 724
M  V30 1479 1 723 725
M  V30 1480 1 723 3191
M  V30 1481 2 724 726
M  V30 1482 1 724 3192
M  V30 1483 2 725 727
M  V30 1484 1 725 3193
M  V30 1485 1 726 727
M  V30 1486 1 726 3194
M  V30 1487 1 727 3195
M  V30 1488 1 728 729
M  V30 1489 1 728 3196
M  V30 1490 1 729 730
M  V30 1491 1 729 732
M  V30 1492 1 729 3197
M  V30 1493 2 730 731
M  V30 1494 1 730 740
M  V30 1495 1 732 733
M  V30 1496 1 732 3198
M  V30 1497 1 732 3199
M  V30 1498 2 733 734
M  V30 1499 1 733 735
M  V30 1500 1 734 736
M  V30 1501 1 734 3200
M  V30 1502 2 735 737
M  V30 1503 1 735 3201
M  V30 1504 2 736 738
M  V30 1505 1 736 3202
M  V30 1506 1 737 738
M  V30 1507 1 737 3203
M  V30 1508 1 738 739
M  V30 1509 1 739 3204
M  V30 1510 1 740 741
M  V30 1511 1 740 3205
M  V30 1512 1 741 742
M  V30 1513 1 741 744
M  V30 1514 1 741 3206
M  V30 1515 2 742 743
M  V30 1516 1 742 746
M  V30 1517 1 744 745
M  V30 1518 1 744 3207
M  V30 1519 1 744 3208
M  V30 1520 1 745 3209
M  V30 1521 1 746 747
M  V30 1522 1 746 3210
M  V30 1523 1 747 748
M  V30 1524 1 747 750
M  V30 1525 1 747 3211
M  V30 1526 2 748 749
M  V30 1527 1 748 754
M  V30 1528 1 750 751
M  V30 1529 1 750 3212
M  V30 1530 1 750 3213
M  V30 1531 2 751 752
M  V30 1532 1 751 753
M  V30 1533 1 754 755
M  V30 1534 1 754 3214
M  V30 1535 1 755 756
M  V30 1536 1 755 3215
M  V30 1537 1 755 3216
M  V30 1538 2 756 757
M  V30 1539 1 756 758
M  V30 1540 1 758 759
M  V30 1541 1 758 3217
M  V30 1542 1 759 760
M  V30 1543 1 759 762
M  V30 1544 1 759 3218
M  V30 1545 2 760 761
M  V30 1546 1 760 767
M  V30 1547 1 762 763
M  V30 1548 1 762 3219
M  V30 1549 1 762 3220
M  V30 1550 1 763 764
M  V30 1551 1 763 3221
M  V30 1552 1 763 3222
M  V30 1553 2 764 765
M  V30 1554 1 764 766
M  V30 1555 1 767 768
M  V30 1556 1 767 3223
M  V30 1557 1 768 769
M  V30 1558 1 768 771
M  V30 1559 1 768 3224
M  V30 1560 2 769 770
M  V30 1561 1 769 775
M  V30 1562 1 771 772
M  V30 1563 1 771 773
M  V30 1564 1 771 3225
M  V30 1565 1 772 774
M  V30 1566 1 772 3226
M  V30 1567 1 772 3227
M  V30 1568 1 773 3228
M  V30 1569 1 773 3229
M  V30 1570 1 773 3230
M  V30 1571 1 774 3231
M  V30 1572 1 774 3232
M  V30 1573 1 774 3233
M  V30 1574 1 775 776
M  V30 1575 1 775 3234
M  V30 1576 1 776 777
M  V30 1577 1 776 779
M  V30 1578 1 776 3235
M  V30 1579 2 777 778
M  V30 1580 1 777 781
M  V30 1581 1 779 780
M  V30 1582 1 779 3236
M  V30 1583 1 779 3237
M  V30 1584 1 780 3238
M  V30 1585 1 781 782
M  V30 1586 1 781 3239
M  V30 1587 1 782 783
M  V30 1588 1 782 785
M  V30 1589 1 782 3240
M  V30 1590 2 783 784
M  V30 1591 1 783 789
M  V30 1592 1 785 786
M  V30 1593 1 785 787
M  V30 1594 1 785 3241
M  V30 1595 1 786 788
M  V30 1596 1 786 3242
M  V30 1597 1 786 3243
M  V30 1598 1 787 3244
M  V30 1599 1 787 3245
M  V30 1600 1 787 3246
M  V30 1601 1 788 3247
M  V30 1602 1 788 3248
M  V30 1603 1 788 3249
M  V30 1604 1 789 790
M  V30 1605 1 789 3250
M  V30 1606 1 790 791
M  V30 1607 1 790 793
M  V30 1608 1 790 3251
M  V30 1609 2 791 792
M  V30 1610 1 791 795
M  V30 1611 1 793 794
M  V30 1612 1 793 3252
M  V30 1613 1 793 3253
M  V30 1614 1 794 3254
M  V30 1615 1 795 796
M  V30 1616 1 795 3255
M  V30 1617 1 796 797
M  V30 1618 1 796 799
M  V30 1619 1 796 3256
M  V30 1620 2 797 798
M  V30 1621 1 797 803
M  V30 1622 1 799 800
M  V30 1623 1 799 3257
M  V30 1624 1 799 3258
M  V30 1625 1 800 801
M  V30 1626 1 800 3259
M  V30 1627 1 800 3260
M  V30 1628 1 801 802
M  V30 1629 1 802 3261
M  V30 1630 1 802 3262
M  V30 1631 1 802 3263
M  V30 1632 1 803 804
M  V30 1633 1 803 3264
M  V30 1634 1 804 805
M  V30 1635 1 804 807
M  V30 1636 1 804 3265
M  V30 1637 2 805 806
M  V30 1638 1 805 812
M  V30 1639 1 807 808
M  V30 1640 1 807 3266
M  V30 1641 1 807 3267
M  V30 1642 1 808 809
M  V30 1643 1 808 3268
M  V30 1644 1 808 3269
M  V30 1645 2 809 810
M  V30 1646 1 809 811
M  V30 1647 1 812 813
M  V30 1648 1 812 3270
M  V30 1649 1 813 814
M  V30 1650 1 813 816
M  V30 1651 1 813 3271
M  V30 1652 2 814 815
M  V30 1653 1 814 822
M  V30 1654 1 816 817
M  V30 1655 1 816 3272
M  V30 1656 1 816 3273
M  V30 1657 1 817 818
M  V30 1658 2 817 819
M  V30 1659 2 818 820
M  V30 1660 1 819 821
M  V30 1661 1 819 3274
M  V30 1662 1 820 821
M  V30 1663 1 820 3275
M  V30 1664 1 821 4920
M  V30 1665 1 822 823
M  V30 1666 1 822 3276
M  V30 1667 1 823 824
M  V30 1668 1 823 826
M  V30 1669 1 823 3277
M  V30 1670 2 824 825
M  V30 1671 1 824 830
M  V30 1672 1 826 827
M  V30 1673 1 826 3278
M  V30 1674 1 826 3279
M  V30 1675 1 827 828
M  V30 1676 1 827 3280
M  V30 1677 1 827 3281
M  V30 1678 1 828 829
M  V30 1679 1 829 3282
M  V30 1680 1 829 3283
M  V30 1681 1 829 3284
M  V30 1682 1 830 831
M  V30 1683 1 830 3285
M  V30 1684 1 831 832
M  V30 1685 1 831 834
M  V30 1686 1 831 3286
M  V30 1687 2 832 833
M  V30 1688 1 832 838
M  V30 1689 1 834 835
M  V30 1690 1 834 3287
M  V30 1691 1 834 3288
M  V30 1692 2 835 836
M  V30 1693 1 835 837
M  V30 1694 1 838 839
M  V30 1695 1 838 3289
M  V30 1696 1 839 840
M  V30 1697 1 839 3290
M  V30 1698 1 839 3291
M  V30 1699 2 840 841
M  V30 1700 1 840 842
M  V30 1701 1 842 843
M  V30 1702 1 842 3292
M  V30 1703 1 843 844
M  V30 1704 1 843 3293
M  V30 1705 1 843 3294
M  V30 1706 2 844 845
M  V30 1707 1 844 846
M  V30 1708 1 846 847
M  V30 1709 1 846 3295
M  V30 1710 1 847 848
M  V30 1711 1 847 850
M  V30 1712 1 847 3296
M  V30 1713 2 848 849
M  V30 1714 1 848 852
M  V30 1715 1 850 851
M  V30 1716 1 850 3297
M  V30 1717 1 850 3298
M  V30 1718 1 851 3299
M  V30 1719 1 852 853
M  V30 1720 1 852 3300
M  V30 1721 1 853 854
M  V30 1722 1 853 856
M  V30 1723 1 853 3301
M  V30 1724 2 854 855
M  V30 1725 1 854 860
M  V30 1726 1 856 857
M  V30 1727 1 856 3302
M  V30 1728 1 856 3303
M  V30 1729 1 857 858
M  V30 1730 1 857 859
M  V30 1731 1 857 3304
M  V30 1732 1 858 3305
M  V30 1733 1 858 3306
M  V30 1734 1 858 3307
M  V30 1735 1 859 3308
M  V30 1736 1 859 3309
M  V30 1737 1 859 3310
M  V30 1738 1 860 861
M  V30 1739 1 860 3311
M  V30 1740 1 861 862
M  V30 1741 1 861 864
M  V30 1742 1 861 3312
M  V30 1743 2 862 863
M  V30 1744 1 862 868
M  V30 1745 1 864 865
M  V30 1746 1 864 3313
M  V30 1747 1 864 3314
M  V30 1748 2 865 866
M  V30 1749 1 865 867
M  V30 1750 1 868 869
M  V30 1751 1 868 3315
M  V30 1752 1 869 870
M  V30 1753 1 869 872
M  V30 1754 1 869 3316
M  V30 1755 2 870 871
M  V30 1756 1 870 877
M  V30 1757 1 872 873
M  V30 1758 1 872 3317
M  V30 1759 1 872 3318
M  V30 1760 1 873 874
M  V30 1761 1 873 3319
M  V30 1762 1 873 3320
M  V30 1763 2 874 875
M  V30 1764 1 874 876
M  V30 1765 1 876 3321
M  V30 1766 1 876 3322
M  V30 1767 1 877 878
M  V30 1768 1 877 3323
M  V30 1769 1 878 879
M  V30 1770 1 878 881
M  V30 1771 1 878 3324
M  V30 1772 2 879 880
M  V30 1773 1 879 884
M  V30 1774 1 881 882
M  V30 1775 1 881 883
M  V30 1776 1 881 3325
M  V30 1777 1 882 3326
M  V30 1778 1 882 3327
M  V30 1779 1 882 3328
M  V30 1780 1 883 3329
M  V30 1781 1 883 3330
M  V30 1782 1 883 3331
M  V30 1783 1 884 885
M  V30 1784 1 884 3332
M  V30 1785 1 885 886
M  V30 1786 1 885 888
M  V30 1787 1 885 3333
M  V30 1788 2 886 887
M  V30 1789 1 886 892
M  V30 1790 1 888 889
M  V30 1791 1 888 3334
M  V30 1792 1 888 3335
M  V30 1793 1 889 890
M  V30 1794 1 889 891
M  V30 1795 1 889 3336
M  V30 1796 1 890 3337
M  V30 1797 1 890 3338
M  V30 1798 1 890 3339
M  V30 1799 1 891 3340
M  V30 1800 1 891 3341
M  V30 1801 1 891 3342
M  V30 1802 1 892 893
M  V30 1803 1 892 3343
M  V30 1804 1 893 894
M  V30 1805 1 893 896
M  V30 1806 1 893 3344
M  V30 1807 2 894 895
M  V30 1808 1 894 901
M  V30 1809 1 896 897
M  V30 1810 1 896 3345
M  V30 1811 1 896 3346
M  V30 1812 1 897 898
M  V30 1813 1 897 3347
M  V30 1814 1 897 3348
M  V30 1815 1 898 899
M  V30 1816 1 898 3349
M  V30 1817 1 898 3350
M  V30 1818 1 899 900
M  V30 1819 1 899 3351
M  V30 1820 1 899 3352
M  V30 1821 1 900 3353
M  V30 1822 1 900 3354
M  V30 1823 1 900 3355
M  V30 1824 1 901 902
M  V30 1825 1 901 3356
M  V30 1826 1 902 903
M  V30 1827 1 902 905
M  V30 1828 1 902 3357
M  V30 1829 2 903 904
M  V30 1830 1 903 910
M  V30 1831 1 905 906
M  V30 1832 1 905 3358
M  V30 1833 1 905 3359
M  V30 1834 1 906 907
M  V30 1835 1 906 3360
M  V30 1836 1 906 3361
M  V30 1837 1 907 908
M  V30 1838 1 907 3362
M  V30 1839 1 907 3363
M  V30 1840 1 908 909
M  V30 1841 1 908 3364
M  V30 1842 1 908 3365
M  V30 1843 1 909 3366
M  V30 1844 1 909 3367
M  V30 1845 1 909 3368
M  V30 1846 1 910 911
M  V30 1847 1 910 3369
M  V30 1848 1 911 912
M  V30 1849 1 911 914
M  V30 1850 1 911 3370
M  V30 1851 2 912 913
M  V30 1852 1 912 915
M  V30 1853 1 914 3371
M  V30 1854 1 914 3372
M  V30 1855 1 914 3373
M  V30 1856 1 915 916
M  V30 1857 1 915 3374
M  V30 1858 1 916 917
M  V30 1859 1 916 3375
M  V30 1860 1 916 3376
M  V30 1861 2 917 918
M  V30 1862 1 917 919
M  V30 1863 1 919 920
M  V30 1864 1 919 3377
M  V30 1865 1 920 921
M  V30 1866 1 920 923
M  V30 1867 1 920 3378
M  V30 1868 2 921 922
M  V30 1869 1 921 930
M  V30 1870 1 923 924
M  V30 1871 1 923 3379
M  V30 1872 1 923 3380
M  V30 1873 1 924 925
M  V30 1874 1 924 3381
M  V30 1875 1 924 3382
M  V30 1876 1 925 926
M  V30 1877 1 925 3383
M  V30 1878 1 925 3384
M  V30 1879 1 926 927
M  V30 1880 1 926 3385
M  V30 1881 1 927 928
M  V30 1882 2 927 929
M  V30 1883 1 928 3386
M  V30 1884 1 928 3387
M  V30 1885 1 929 3388
M  V30 1886 1 929 3389
M  V30 1887 1 930 931
M  V30 1888 1 930 3390
M  V30 1889 1 931 932
M  V30 1890 1 931 934
M  V30 1891 1 931 3391
M  V30 1892 2 932 933
M  V30 1893 1 932 938
M  V30 1894 1 934 935
M  V30 1895 1 934 936
M  V30 1896 1 934 3392
M  V30 1897 1 935 937
M  V30 1898 1 935 3393
M  V30 1899 1 935 3394
M  V30 1900 1 936 3395
M  V30 1901 1 936 3396
M  V30 1902 1 936 3397
M  V30 1903 1 937 3398
M  V30 1904 1 937 3399
M  V30 1905 1 937 3400
M  V30 1906 1 938 939
M  V30 1907 1 938 944
M  V30 1908 1 939 940
M  V30 1909 1 939 942
M  V30 1910 1 939 3401
M  V30 1911 2 940 941
M  V30 1912 1 940 945
M  V30 1913 1 942 943
M  V30 1914 1 942 3402
M  V30 1915 1 942 3403
M  V30 1916 1 943 944
M  V30 1917 1 943 3404
M  V30 1918 1 943 3405
M  V30 1919 1 944 3406
M  V30 1920 1 944 3407
M  V30 1921 1 945 946
M  V30 1922 1 945 3408
M  V30 1923 1 946 947
M  V30 1924 1 946 949
M  V30 1925 1 946 3409
M  V30 1926 2 947 948
M  V30 1927 1 947 954
M  V30 1928 1 949 950
M  V30 1929 1 949 3410
M  V30 1930 1 949 3411
M  V30 1931 1 950 951
M  V30 1932 1 950 3412
M  V30 1933 1 950 3413
M  V30 1934 2 951 952
M  V30 1935 1 951 953
M  V30 1936 1 954 955
M  V30 1937 1 954 3414
M  V30 1938 1 955 956
M  V30 1939 1 955 958
M  V30 1940 1 955 3415
M  V30 1941 2 956 957
M  V30 1942 1 956 963
M  V30 1943 1 958 959
M  V30 1944 1 958 3416
M  V30 1945 1 958 3417
M  V30 1946 1 959 960
M  V30 1947 1 959 3418
M  V30 1948 1 959 3419
M  V30 1949 2 960 961
M  V30 1950 1 960 962
M  V30 1951 1 962 3420
M  V30 1952 1 962 3421
M  V30 1953 1 963 964
M  V30 1954 1 963 3422
M  V30 1955 1 964 965
M  V30 1956 1 964 967
M  V30 1957 1 964 3423
M  V30 1958 2 965 966
M  V30 1959 1 965 971
M  V30 1960 1 967 968
M  V30 1961 1 967 969
M  V30 1962 1 967 3424
M  V30 1963 1 968 970
M  V30 1964 1 968 3425
M  V30 1965 1 968 3426
M  V30 1966 1 969 3427
M  V30 1967 1 969 3428
M  V30 1968 1 969 3429
M  V30 1969 1 970 3430
M  V30 1970 1 970 3431
M  V30 1971 1 970 3432
M  V30 1972 1 971 972
M  V30 1973 1 971 3433
M  V30 1974 1 972 973
M  V30 1975 1 972 975
M  V30 1976 1 972 3434
M  V30 1977 2 973 974
M  V30 1978 1 973 979
M  V30 1979 1 975 976
M  V30 1980 1 975 3435
M  V30 1981 1 975 3436
M  V30 1982 1 976 977
M  V30 1983 1 976 978
M  V30 1984 1 976 3437
M  V30 1985 1 977 3438
M  V30 1986 1 977 3439
M  V30 1987 1 977 3440
M  V30 1988 1 978 3441
M  V30 1989 1 978 3442
M  V30 1990 1 978 3443
M  V30 1991 1 979 980
M  V30 1992 1 979 3444
M  V30 1993 1 980 981
M  V30 1994 1 980 3445
M  V30 1995 1 980 3446
M  V30 1996 2 981 982
M  V30 1997 1 981 983
M  V30 1998 1 983 984
M  V30 1999 1 983 3447
M  V30 2000 1 984 985
M  V30 2001 1 984 987
M  V30 2002 1 984 3448
M  V30 2003 2 985 986
M  V30 2004 1 985 992
M  V30 2005 1 987 988
M  V30 2006 1 987 3449
M  V30 2007 1 987 3450
M  V30 2008 1 988 989
M  V30 2009 1 988 3451
M  V30 2010 1 988 3452
M  V30 2011 1 989 990
M  V30 2012 1 989 3453
M  V30 2013 1 989 3454
M  V30 2014 1 990 991
M  V30 2015 1 990 3455
M  V30 2016 1 990 3456
M  V30 2017 1 991 3457
M  V30 2018 1 991 3458
M  V30 2019 1 991 3459
M  V30 2020 1 992 993
M  V30 2021 1 992 3460
M  V30 2022 1 993 994
M  V30 2023 1 993 996
M  V30 2024 1 993 3461
M  V30 2025 2 994 995
M  V30 2026 1 994 999
M  V30 2027 1 996 997
M  V30 2028 1 996 998
M  V30 2029 1 996 3462
M  V30 2030 1 997 3463
M  V30 2031 1 997 3464
M  V30 2032 1 997 3465
M  V30 2033 1 998 3466
M  V30 2034 1 998 3467
M  V30 2035 1 998 3468
M  V30 2036 1 999 1000
M  V30 2037 1 999 3469
M  V30 2038 1 1000 1001
M  V30 2039 1 1000 1003
M  V30 2040 1 1000 3470
M  V30 2041 2 1001 1002
M  V30 2042 1 1001 1005
M  V30 2043 1 1003 1004
M  V30 2044 1 1003 3471
M  V30 2045 1 1003 3472
M  V30 2046 1 1004 3473
M  V30 2047 1 1005 1006
M  V30 2048 1 1005 3474
M  V30 2049 1 1006 1007
M  V30 2050 1 1006 1009
M  V30 2051 1 1006 3475
M  V30 2052 2 1007 1008
M  V30 2053 1 1007 1013
M  V30 2054 1 1009 1010
M  V30 2055 1 1009 1011
M  V30 2056 1 1009 3476
M  V30 2057 1 1010 1012
M  V30 2058 1 1010 3477
M  V30 2059 1 1010 3478
M  V30 2060 1 1011 3479
M  V30 2061 1 1011 3480
M  V30 2062 1 1011 3481
M  V30 2063 1 1012 3482
M  V30 2064 1 1012 3483
M  V30 2065 1 1012 3484
M  V30 2066 1 1013 1014
M  V30 2067 1 1013 3485
M  V30 2068 1 1014 1015
M  V30 2069 1 1014 1017
M  V30 2070 1 1014 3486
M  V30 2071 2 1015 1016
M  V30 2072 1 1015 1018
M  V30 2073 1 1017 3487
M  V30 2074 1 1017 3488
M  V30 2075 1 1017 3489
M  V30 2076 1 1018 1019
M  V30 2077 1 1018 3490
M  V30 2078 1 1019 1020
M  V30 2079 1 1019 1022
M  V30 2080 1 1019 3491
M  V30 2081 2 1020 1021
M  V30 2082 1 1020 1025
M  V30 2083 1 1022 1023
M  V30 2084 1 1022 1024
M  V30 2085 1 1022 3492
M  V30 2086 1 1023 3493
M  V30 2087 1 1023 3494
M  V30 2088 1 1023 3495
M  V30 2089 1 1024 3496
M  V30 2090 1 1024 3497
M  V30 2091 1 1024 3498
M  V30 2092 1 1025 1026
M  V30 2093 1 1025 3499
M  V30 2094 1 1026 1027
M  V30 2095 1 1026 1029
M  V30 2096 1 1026 3500
M  V30 2097 2 1027 1028
M  V30 2098 1 1027 1033
M  V30 2099 1 1029 1030
M  V30 2100 1 1029 1031
M  V30 2101 1 1029 3501
M  V30 2102 1 1030 1032
M  V30 2103 1 1030 3502
M  V30 2104 1 1030 3503
M  V30 2105 1 1031 3504
M  V30 2106 1 1031 3505
M  V30 2107 1 1031 3506
M  V30 2108 1 1032 3507
M  V30 2109 1 1032 3508
M  V30 2110 1 1032 3509
M  V30 2111 1 1033 1034
M  V30 2112 1 1033 3510
M  V30 2113 1 1034 1035
M  V30 2114 1 1034 1037
M  V30 2115 1 1034 3511
M  V30 2116 2 1035 1036
M  V30 2117 1 1035 1042
M  V30 2118 1 1037 1038
M  V30 2119 1 1037 3512
M  V30 2120 1 1037 3513
M  V30 2121 1 1038 1039
M  V30 2122 1 1038 3514
M  V30 2123 1 1038 3515
M  V30 2124 1 1039 1040
M  V30 2125 1 1039 3516
M  V30 2126 1 1039 3517
M  V30 2127 1 1040 1041
M  V30 2128 1 1040 3518
M  V30 2129 1 1040 3519
M  V30 2130 1 1041 3520
M  V30 2131 1 1041 3521
M  V30 2132 1 1041 3522
M  V30 2133 1 1042 1043
M  V30 2134 1 1042 3523
M  V30 2135 1 1043 1044
M  V30 2136 1 1043 3524
M  V30 2137 1 1043 3525
M  V30 2138 2 1044 1045
M  V30 2139 1 1044 1046
M  V30 2140 1 1046 1047
M  V30 2141 1 1046 3526
M  V30 2142 1 1047 1048
M  V30 2143 1 1047 1050
M  V30 2144 1 1047 3527
M  V30 2145 2 1048 1049
M  V30 2146 1 1048 1054
M  V30 2147 1 1050 1051
M  V30 2148 1 1050 3528
M  V30 2149 1 1050 3529
M  V30 2150 1 1051 1052
M  V30 2151 1 1051 1053
M  V30 2152 1 1051 3530
M  V30 2153 1 1052 3531
M  V30 2154 1 1052 3532
M  V30 2155 1 1052 3533
M  V30 2156 1 1053 3534
M  V30 2157 1 1053 3535
M  V30 2158 1 1053 3536
M  V30 2159 1 1054 1055
M  V30 2160 1 1054 3537
M  V30 2161 1 1055 1056
M  V30 2162 1 1055 1058
M  V30 2163 1 1055 3538
M  V30 2164 2 1056 1057
M  V30 2165 1 1056 1061
M  V30 2166 1 1058 1059
M  V30 2167 1 1058 1060
M  V30 2168 1 1058 3539
M  V30 2169 1 1059 3540
M  V30 2170 1 1060 3541
M  V30 2171 1 1060 3542
M  V30 2172 1 1060 3543
M  V30 2173 1 1061 1062
M  V30 2174 1 1061 3544
M  V30 2175 1 1062 1063
M  V30 2176 1 1062 1065
M  V30 2177 1 1062 3545
M  V30 2178 2 1063 1064
M  V30 2179 1 1063 1073
M  V30 2180 1 1065 1066
M  V30 2181 1 1065 3546
M  V30 2182 1 1065 3547
M  V30 2183 2 1066 1067
M  V30 2184 1 1066 1068
M  V30 2185 1 1067 1069
M  V30 2186 1 1067 3548
M  V30 2187 2 1068 1070
M  V30 2188 1 1068 3549
M  V30 2189 2 1069 1071
M  V30 2190 1 1069 3550
M  V30 2191 1 1070 1071
M  V30 2192 1 1070 3551
M  V30 2193 1 1071 1072
M  V30 2194 1 1072 3552
M  V30 2195 1 1073 1074
M  V30 2196 1 1073 3553
M  V30 2197 1 1074 1075
M  V30 2198 1 1074 1077
M  V30 2199 1 1074 3554
M  V30 2200 2 1075 1076
M  V30 2201 1 1075 1081
M  V30 2202 1 1077 1078
M  V30 2203 1 1077 3555
M  V30 2204 1 1077 3556
M  V30 2205 1 1078 1079
M  V30 2206 1 1078 1080
M  V30 2207 1 1078 3557
M  V30 2208 1 1079 3558
M  V30 2209 1 1079 3559
M  V30 2210 1 1079 3560
M  V30 2211 1 1080 3561
M  V30 2212 1 1080 3562
M  V30 2213 1 1080 3563
M  V30 2214 1 1081 1082
M  V30 2215 1 1081 3564
M  V30 2216 1 1082 1083
M  V30 2217 1 1082 1085
M  V30 2218 1 1082 3565
M  V30 2219 2 1083 1084
M  V30 2220 1 1083 1092
M  V30 2221 1 1085 1086
M  V30 2222 1 1085 3566
M  V30 2223 1 1085 3567
M  V30 2224 1 1086 1087
M  V30 2225 1 1086 3568
M  V30 2226 1 1086 3569
M  V30 2227 1 1087 1088
M  V30 2228 1 1087 3570
M  V30 2229 1 1087 3571
M  V30 2230 1 1088 1089
M  V30 2231 1 1088 3572
M  V30 2232 1 1089 1090
M  V30 2233 2 1089 1091
M  V30 2234 1 1090 3573
M  V30 2235 1 1090 3574
M  V30 2236 1 1091 3575
M  V30 2237 1 1091 3576
M  V30 2238 1 1092 1093
M  V30 2239 1 1092 3577
M  V30 2240 1 1093 1094
M  V30 2241 1 1093 1096
M  V30 2242 1 1093 3578
M  V30 2243 2 1094 1095
M  V30 2244 1 1094 1101
M  V30 2245 1 1096 1097
M  V30 2246 1 1096 3579
M  V30 2247 1 1096 3580
M  V30 2248 1 1097 1098
M  V30 2249 1 1097 3581
M  V30 2250 1 1097 3582
M  V30 2251 2 1098 1099
M  V30 2252 1 1098 1100
M  V30 2253 1 1101 1102
M  V30 2254 1 1101 3583
M  V30 2255 1 1102 1103
M  V30 2256 1 1102 1105
M  V30 2257 1 1102 3584
M  V30 2258 2 1103 1104
M  V30 2259 1 1103 1110
M  V30 2260 1 1105 1106
M  V30 2261 1 1105 3585
M  V30 2262 1 1105 3586
M  V30 2263 1 1106 1107
M  V30 2264 1 1106 3587
M  V30 2265 1 1106 3588
M  V30 2266 1 1107 1108
M  V30 2267 1 1107 3589
M  V30 2268 1 1107 3590
M  V30 2269 1 1108 1109
M  V30 2270 1 1108 3591
M  V30 2271 1 1108 3592
M  V30 2272 1 1109 3593
M  V30 2273 1 1109 3594
M  V30 2274 1 1109 3595
M  V30 2275 1 1110 1111
M  V30 2276 1 1110 3596
M  V30 2277 1 1111 1112
M  V30 2278 1 1111 1114
M  V30 2279 1 1111 3597
M  V30 2280 2 1112 1113
M  V30 2281 1 1112 1120
M  V30 2282 1 1114 1115
M  V30 2283 1 1114 3598
M  V30 2284 1 1114 3599
M  V30 2285 1 1115 1116
M  V30 2286 2 1115 1117
M  V30 2287 2 1116 1118
M  V30 2288 1 1117 1119
M  V30 2289 1 1117 3600
M  V30 2290 1 1118 1119
M  V30 2291 1 1118 3601
M  V30 2292 1 1119 4921
M  V30 2293 1 1120 1121
M  V30 2294 1 1120 3602
M  V30 2295 1 1121 1122
M  V30 2296 1 1121 1124
M  V30 2297 1 1121 3603
M  V30 2298 2 1122 1123
M  V30 2299 1 1122 1129
M  V30 2300 1 1124 1125
M  V30 2301 1 1124 3604
M  V30 2302 1 1124 3605
M  V30 2303 1 1125 1126
M  V30 2304 1 1125 3606
M  V30 2305 1 1125 3607
M  V30 2306 1 1126 1127
M  V30 2307 1 1126 3608
M  V30 2308 1 1126 3609
M  V30 2309 1 1127 1128
M  V30 2310 1 1127 3610
M  V30 2311 1 1127 3611
M  V30 2312 1 1128 3612
M  V30 2313 1 1128 3613
M  V30 2314 1 1128 3614
M  V30 2315 1 1129 1130
M  V30 2316 1 1129 3615
M  V30 2317 1 1130 1131
M  V30 2318 1 1130 1133
M  V30 2319 1 1130 3616
M  V30 2320 2 1131 1132
M  V30 2321 1 1131 1137
M  V30 2322 1 1133 1134
M  V30 2323 1 1133 1135
M  V30 2324 1 1133 3617
M  V30 2325 1 1134 1136
M  V30 2326 1 1134 3618
M  V30 2327 1 1134 3619
M  V30 2328 1 1135 3620
M  V30 2329 1 1135 3621
M  V30 2330 1 1135 3622
M  V30 2331 1 1136 3623
M  V30 2332 1 1136 3624
M  V30 2333 1 1136 3625
M  V30 2334 1 1137 1138
M  V30 2335 1 1137 3626
M  V30 2336 1 1138 1139
M  V30 2337 1 1138 1141
M  V30 2338 1 1138 3627
M  V30 2339 2 1139 1140
M  V30 2340 1 1139 1145
M  V30 2341 1 1141 1142
M  V30 2342 1 1141 3628
M  V30 2343 1 1141 3629
M  V30 2344 1 1142 1143
M  V30 2345 1 1142 3630
M  V30 2346 1 1142 3631
M  V30 2347 1 1143 1144
M  V30 2348 1 1144 3632
M  V30 2349 1 1144 3633
M  V30 2350 1 1144 3634
M  V30 2351 1 1145 1146
M  V30 2352 1 1145 3635
M  V30 2353 1 1146 1147
M  V30 2354 1 1146 1149
M  V30 2355 1 1146 3636
M  V30 2356 2 1147 1148
M  V30 2357 1 1147 1155
M  V30 2358 1 1149 1150
M  V30 2359 1 1149 3637
M  V30 2360 1 1149 3638
M  V30 2361 1 1150 1151
M  V30 2362 2 1150 1152
M  V30 2363 2 1151 1153
M  V30 2364 1 1152 1154
M  V30 2365 1 1152 3639
M  V30 2366 1 1153 1154
M  V30 2367 1 1153 3640
M  V30 2368 1 1154 4922
M  V30 2369 1 1155 1156
M  V30 2370 1 1155 3641
M  V30 2371 1 1156 1157
M  V30 2372 1 1156 1159
M  V30 2373 1 1156 3642
M  V30 2374 2 1157 1158
M  V30 2375 1 1157 1166
M  V30 2376 1 1159 1160
M  V30 2377 1 1159 3643
M  V30 2378 1 1159 3644
M  V30 2379 1 1160 1161
M  V30 2380 1 1160 3645
M  V30 2381 1 1160 3646
M  V30 2382 1 1161 1162
M  V30 2383 1 1161 3647
M  V30 2384 1 1161 3648
M  V30 2385 1 1162 1163
M  V30 2386 1 1162 3649
M  V30 2387 1 1163 1164
M  V30 2388 2 1163 1165
M  V30 2389 1 1164 3650
M  V30 2390 1 1164 3651
M  V30 2391 1 1165 3652
M  V30 2392 1 1165 3653
M  V30 2393 1 1166 1167
M  V30 2394 1 1166 3654
M  V30 2395 1 1167 1168
M  V30 2396 1 1167 1170
M  V30 2397 1 1167 3655
M  V30 2398 2 1168 1169
M  V30 2399 1 1168 1174
M  V30 2400 1 1170 1171
M  V30 2401 1 1170 3656
M  V30 2402 1 1170 3657
M  V30 2403 2 1171 1172
M  V30 2404 1 1171 1173
M  V30 2405 1 1174 1175
M  V30 2406 1 1174 3658
M  V30 2407 1 1175 1176
M  V30 2408 1 1175 1178
M  V30 2409 1 1175 3659
M  V30 2410 2 1176 1177
M  V30 2411 1 1176 1181
M  V30 2412 1 1178 1179
M  V30 2413 1 1178 1180
M  V30 2414 1 1178 3660
M  V30 2415 1 1179 3661
M  V30 2416 1 1179 3662
M  V30 2417 1 1179 3663
M  V30 2418 1 1180 3664
M  V30 2419 1 1180 3665
M  V30 2420 1 1180 3666
M  V30 2421 1 1181 1182
M  V30 2422 1 1181 3667
M  V30 2423 1 1182 1183
M  V30 2424 1 1182 1185
M  V30 2425 1 1182 3668
M  V30 2426 2 1183 1184
M  V30 2427 1 1183 1190
M  V30 2428 1 1185 1186
M  V30 2429 1 1185 3669
M  V30 2430 1 1185 3670
M  V30 2431 1 1186 1187
M  V30 2432 1 1186 3671
M  V30 2433 1 1186 3672
M  V30 2434 1 1187 1188
M  V30 2435 1 1187 3673
M  V30 2436 1 1187 3674
M  V30 2437 1 1188 1189
M  V30 2438 1 1188 3675
M  V30 2439 1 1188 3676
M  V30 2440 1 1189 3677
M  V30 2441 1 1189 3678
M  V30 2442 1 1189 3679
M  V30 2443 1 1190 1191
M  V30 2444 1 1190 1196
M  V30 2445 1 1191 1192
M  V30 2446 1 1191 1194
M  V30 2447 1 1191 3680
M  V30 2448 2 1192 1193
M  V30 2449 1 1192 1197
M  V30 2450 1 1194 1195
M  V30 2451 1 1194 3681
M  V30 2452 1 1194 3682
M  V30 2453 1 1195 1196
M  V30 2454 1 1195 3683
M  V30 2455 1 1195 3684
M  V30 2456 1 1196 3685
M  V30 2457 1 1196 3686
M  V30 2458 1 1197 1198
M  V30 2459 1 1197 3687
M  V30 2460 1 1198 1199
M  V30 2461 1 1198 1201
M  V30 2462 1 1198 3688
M  V30 2463 2 1199 1200
M  V30 2464 1 1199 1203
M  V30 2465 1 1201 1202
M  V30 2466 1 1201 3689
M  V30 2467 1 1201 3690
M  V30 2468 1 1202 3691
M  V30 2469 1 1203 1204
M  V30 2470 1 1203 3692
M  V30 2471 1 1204 1205
M  V30 2472 1 1204 1207
M  V30 2473 1 1204 3693
M  V30 2474 2 1205 1206
M  V30 2475 1 1205 1211
M  V30 2476 1 1207 1208
M  V30 2477 1 1207 3694
M  V30 2478 1 1207 3695
M  V30 2479 2 1208 1209
M  V30 2480 1 1208 1210
M  V30 2481 1 1210 3696
M  V30 2482 1 1210 3697
M  V30 2483 1 1211 1212
M  V30 2484 1 1211 3698
M  V30 2485 1 1212 1213
M  V30 2486 1 1212 1215
M  V30 2487 1 1212 3699
M  V30 2488 2 1213 1214
M  V30 2489 1 1213 1219
M  V30 2490 1 1215 1216
M  V30 2491 1 1215 1217
M  V30 2492 1 1215 3700
M  V30 2493 1 1216 1218
M  V30 2494 1 1216 3701
M  V30 2495 1 1216 3702
M  V30 2496 1 1217 3703
M  V30 2497 1 1217 3704
M  V30 2498 1 1217 3705
M  V30 2499 1 1218 3706
M  V30 2500 1 1218 3707
M  V30 2501 1 1218 3708
M  V30 2502 1 1219 1220
M  V30 2503 1 1219 3709
M  V30 2504 1 1220 1221
M  V30 2505 1 1220 1223
M  V30 2506 1 1220 3710
M  V30 2507 2 1221 1222
M  V30 2508 1 1221 1227
M  V30 2509 1 1223 1224
M  V30 2510 1 1223 3711
M  V30 2511 1 1223 3712
M  V30 2512 1 1224 1225
M  V30 2513 1 1224 1226
M  V30 2514 1 1224 3713
M  V30 2515 1 1225 3714
M  V30 2516 1 1225 3715
M  V30 2517 1 1225 3716
M  V30 2518 1 1226 3717
M  V30 2519 1 1226 3718
M  V30 2520 1 1226 3719
M  V30 2521 1 1227 1228
M  V30 2522 1 1227 3720
M  V30 2523 1 1228 1229
M  V30 2524 1 1228 1231
M  V30 2525 1 1228 3721
M  V30 2526 2 1229 1230
M  V30 2527 1 1229 1234
M  V30 2528 1 1231 1232
M  V30 2529 1 1231 1233
M  V30 2530 1 1231 3722
M  V30 2531 1 1232 3723
M  V30 2532 1 1232 3724
M  V30 2533 1 1232 3725
M  V30 2534 1 1233 3726
M  V30 2535 1 1233 3727
M  V30 2536 1 1233 3728
M  V30 2537 1 1234 1235
M  V30 2538 1 1234 3729
M  V30 2539 1 1235 1236
M  V30 2540 1 1235 1238
M  V30 2541 1 1235 3730
M  V30 2542 2 1236 1237
M  V30 2543 1 1236 1242
M  V30 2544 1 1238 1239
M  V30 2545 1 1238 3731
M  V30 2546 1 1238 3732
M  V30 2547 2 1239 1240
M  V30 2548 1 1239 1241
M  V30 2549 1 1241 3733
M  V30 2550 1 1241 3734
M  V30 2551 1 1242 1243
M  V30 2552 1 1242 3735
M  V30 2553 1 1243 1244
M  V30 2554 1 1243 1246
M  V30 2555 1 1243 3736
M  V30 2556 2 1244 1245
M  V30 2557 1 1244 1248
M  V30 2558 1 1246 1247
M  V30 2559 1 1246 3737
M  V30 2560 1 1246 3738
M  V30 2561 1 1247 3739
M  V30 2562 1 1248 1249
M  V30 2563 1 1248 3740
M  V30 2564 1 1249 1250
M  V30 2565 1 1249 1252
M  V30 2566 1 1249 3741
M  V30 2567 2 1250 1251
M  V30 2568 1 1250 1259
M  V30 2569 1 1252 1253
M  V30 2570 1 1252 3742
M  V30 2571 1 1252 3743
M  V30 2572 1 1253 1254
M  V30 2573 1 1253 3744
M  V30 2574 1 1253 3745
M  V30 2575 1 1254 1255
M  V30 2576 1 1254 3746
M  V30 2577 1 1254 3747
M  V30 2578 1 1255 1256
M  V30 2579 1 1255 3748
M  V30 2580 1 1256 1257
M  V30 2581 2 1256 1258
M  V30 2582 1 1257 3749
M  V30 2583 1 1257 3750
M  V30 2584 1 1258 3751
M  V30 2585 1 1258 3752
M  V30 2586 1 1259 1260
M  V30 2587 1 1259 3753
M  V30 2588 1 1260 1261
M  V30 2589 1 1260 3754
M  V30 2590 1 1260 3755
M  V30 2591 2 1261 1262
M  V30 2592 1 1261 1263
M  V30 2593 1 1263 1264
M  V30 2594 1 1263 3756
M  V30 2595 1 1264 1265
M  V30 2596 1 1264 1267
M  V30 2597 1 1264 3757
M  V30 2598 2 1265 1266
M  V30 2599 1 1265 1272
M  V30 2600 1 1267 1268
M  V30 2601 1 1267 3758
M  V30 2602 1 1267 3759
M  V30 2603 1 1268 1269
M  V30 2604 1 1268 3760
M  V30 2605 1 1268 3761
M  V30 2606 2 1269 1270
M  V30 2607 1 1269 1271
M  V30 2608 1 1272 1273
M  V30 2609 1 1272 3762
M  V30 2610 1 1273 1274
M  V30 2611 1 1273 1276
M  V30 2612 1 1273 3763
M  V30 2613 2 1274 1275
M  V30 2614 1 1274 1280
M  V30 2615 1 1276 1277
M  V30 2616 1 1276 1278
M  V30 2617 1 1276 3764
M  V30 2618 1 1277 1279
M  V30 2619 1 1277 3765
M  V30 2620 1 1277 3766
M  V30 2621 1 1278 3767
M  V30 2622 1 1278 3768
M  V30 2623 1 1278 3769
M  V30 2624 1 1279 3770
M  V30 2625 1 1279 3771
M  V30 2626 1 1279 3772
M  V30 2627 1 1280 1281
M  V30 2628 1 1280 3773
M  V30 2629 1 1281 1282
M  V30 2630 1 1281 1284
M  V30 2631 1 1281 3774
M  V30 2632 2 1282 1283
M  V30 2633 1 1282 1289
M  V30 2634 1 1284 1285
M  V30 2635 1 1284 3775
M  V30 2636 1 1284 3776
M  V30 2637 1 1285 1286
M  V30 2638 1 1285 3777
M  V30 2639 1 1285 3778
M  V30 2640 1 1286 1287
M  V30 2641 1 1286 3779
M  V30 2642 1 1286 3780
M  V30 2643 1 1287 1288
M  V30 2644 1 1287 3781
M  V30 2645 1 1287 3782
M  V30 2646 1 1288 3783
M  V30 2647 1 1288 3784
M  V30 2648 1 1288 3785
M  V30 2649 1 1289 1290
M  V30 2650 1 1289 3786
M  V30 2651 1 1290 1291
M  V30 2652 1 1290 1293
M  V30 2653 1 1290 3787
M  V30 2654 2 1291 1292
M  V30 2655 1 1291 1297
M  V30 2656 1 1293 1294
M  V30 2657 1 1293 3788
M  V30 2658 1 1293 3789
M  V30 2659 1 1294 1295
M  V30 2660 1 1294 1296
M  V30 2661 1 1294 3790
M  V30 2662 1 1295 3791
M  V30 2663 1 1295 3792
M  V30 2664 1 1295 3793
M  V30 2665 1 1296 3794
M  V30 2666 1 1296 3795
M  V30 2667 1 1296 3796
M  V30 2668 1 1297 1298
M  V30 2669 1 1297 3797
M  V30 2670 1 1298 1299
M  V30 2671 1 1298 1301
M  V30 2672 1 1298 3798
M  V30 2673 2 1299 1300
M  V30 2674 1 1299 1303
M  V30 2675 1 1301 1302
M  V30 2676 1 1301 3799
M  V30 2677 1 1301 3800
M  V30 2678 1 1302 3801
M  V30 2679 1 1303 1304
M  V30 2680 1 1303 3802
M  V30 2681 1 1304 1305
M  V30 2682 1 1304 1307
M  V30 2683 1 1304 3803
M  V30 2684 2 1305 1306
M  V30 2685 1 1305 1311
M  V30 2686 1 1307 1308
M  V30 2687 1 1307 3804
M  V30 2688 1 1307 3805
M  V30 2689 2 1308 1309
M  V30 2690 1 1308 1310
M  V30 2691 1 1311 1312
M  V30 2692 1 1311 3806
M  V30 2693 1 1312 1313
M  V30 2694 1 1312 1315
M  V30 2695 1 1312 3807
M  V30 2696 2 1313 1314
M  V30 2697 1 1313 1322
M  V30 2698 1 1315 1316
M  V30 2699 1 1315 3808
M  V30 2700 1 1315 3809
M  V30 2701 2 1316 1317
M  V30 2702 1 1316 1318
M  V30 2703 1 1317 1319
M  V30 2704 1 1317 3810
M  V30 2705 2 1318 1320
M  V30 2706 1 1318 3811
M  V30 2707 2 1319 1321
M  V30 2708 1 1319 3812
M  V30 2709 1 1320 1321
M  V30 2710 1 1320 3813
M  V30 2711 1 1321 3814
M  V30 2712 1 1322 1323
M  V30 2713 1 1322 3815
M  V30 2714 1 1323 1324
M  V30 2715 1 1323 3816
M  V30 2716 1 1323 3817
M  V30 2717 2 1324 1325
M  V30 2718 1 1324 1326
M  V30 2719 1 1326 1327
M  V30 2720 1 1326 3818
M  V30 2721 1 1327 1328
M  V30 2722 1 1327 1330
M  V30 2723 1 1327 3819
M  V30 2724 2 1328 1329
M  V30 2725 1 1328 1333
M  V30 2726 1 1330 1331
M  V30 2727 1 1330 1332
M  V30 2728 1 1330 3820
M  V30 2729 1 1331 3821
M  V30 2730 1 1331 3822
M  V30 2731 1 1331 3823
M  V30 2732 1 1332 3824
M  V30 2733 1 1332 3825
M  V30 2734 1 1332 3826
M  V30 2735 1 1333 1334
M  V30 2736 1 1333 3827
M  V30 2737 1 1334 1335
M  V30 2738 1 1334 1337
M  V30 2739 1 1334 3828
M  V30 2740 2 1335 1336
M  V30 2741 1 1335 1339
M  V30 2742 1 1337 1338
M  V30 2743 1 1337 3829
M  V30 2744 1 1337 3830
M  V30 2745 1 1338 3831
M  V30 2746 1 1339 1340
M  V30 2747 1 1339 3832
M  V30 2748 1 1340 1341
M  V30 2749 1 1340 3833
M  V30 2750 1 1340 3834
M  V30 2751 2 1341 1342
M  V30 2752 1 1341 1343
M  V30 2753 1 1343 1344
M  V30 2754 1 1343 3835
M  V30 2755 1 1344 1345
M  V30 2756 1 1344 1347
M  V30 2757 1 1344 3836
M  V30 2758 2 1345 1346
M  V30 2759 1 1345 1352
M  V30 2760 1 1347 1348
M  V30 2761 1 1347 3837
M  V30 2762 1 1347 3838
M  V30 2763 1 1348 1349
M  V30 2764 1 1348 3839
M  V30 2765 1 1348 3840
M  V30 2766 2 1349 1350
M  V30 2767 1 1349 1351
M  V30 2768 1 1351 3841
M  V30 2769 1 1351 3842
M  V30 2770 1 1352 1353
M  V30 2771 1 1352 3843
M  V30 2772 1 1353 1354
M  V30 2773 1 1353 1356
M  V30 2774 1 1353 3844
M  V30 2775 2 1354 1355
M  V30 2776 1 1354 1360
M  V30 2777 1 1356 1357
M  V30 2778 1 1356 3845
M  V30 2779 1 1356 3846
M  V30 2780 1 1357 1358
M  V30 2781 1 1357 1359
M  V30 2782 1 1357 3847
M  V30 2783 1 1358 3848
M  V30 2784 1 1358 3849
M  V30 2785 1 1358 3850
M  V30 2786 1 1359 3851
M  V30 2787 1 1359 3852
M  V30 2788 1 1359 3853
M  V30 2789 1 1360 1361
M  V30 2790 1 1360 3854
M  V30 2791 1 1361 1362
M  V30 2792 1 1361 1364
M  V30 2793 1 1361 3855
M  V30 2794 2 1362 1363
M  V30 2795 1 1362 1368
M  V30 2796 1 1364 1365
M  V30 2797 1 1364 1366
M  V30 2798 1 1364 3856
M  V30 2799 1 1365 1367
M  V30 2800 1 1365 3857
M  V30 2801 1 1365 3858
M  V30 2802 1 1366 3859
M  V30 2803 1 1366 3860
M  V30 2804 1 1366 3861
M  V30 2805 1 1367 3862
M  V30 2806 1 1367 3863
M  V30 2807 1 1367 3864
M  V30 2808 1 1368 1369
M  V30 2809 1 1368 3865
M  V30 2810 1 1369 1370
M  V30 2811 1 1369 1372
M  V30 2812 1 1369 3866
M  V30 2813 2 1370 1371
M  V30 2814 1 1370 1376
M  V30 2815 1 1372 1373
M  V30 2816 1 1372 3867
M  V30 2817 1 1372 3868
M  V30 2818 2 1373 1374
M  V30 2819 1 1373 1375
M  V30 2820 1 1376 1377
M  V30 2821 1 1376 3869
M  V30 2822 1 1377 1378
M  V30 2823 1 1377 1380
M  V30 2824 1 1377 3870
M  V30 2825 2 1378 1379
M  V30 2826 1 1378 1381
M  V30 2827 1 1380 3871
M  V30 2828 1 1380 3872
M  V30 2829 1 1380 3873
M  V30 2830 1 1381 1382
M  V30 2831 1 1381 3874
M  V30 2832 1 1382 1383
M  V30 2833 1 1382 1385
M  V30 2834 1 1382 3875
M  V30 2835 2 1383 1384
M  V30 2836 1 1383 1389
M  V30 2837 1 1385 1386
M  V30 2838 1 1385 3876
M  V30 2839 1 1385 3877
M  V30 2840 1 1386 1387
M  V30 2841 1 1386 3878
M  V30 2842 1 1386 3879
M  V30 2843 1 1387 1388
M  V30 2844 1 1388 3880
M  V30 2845 1 1388 3881
M  V30 2846 1 1388 3882
M  V30 2847 1 1389 1390
M  V30 2848 1 1389 3883
M  V30 2849 1 1390 1391
M  V30 2850 1 1390 1393
M  V30 2851 1 1390 3884
M  V30 2852 2 1391 1392
M  V30 2853 1 1391 1394
M  V30 2854 1 1393 3885
M  V30 2855 1 1393 3886
M  V30 2856 1 1393 3887
M  V30 2857 1 1394 1395
M  V30 2858 1 1394 3888
M  V30 2859 1 1395 1396
M  V30 2860 1 1395 1398
M  V30 2861 1 1395 3889
M  V30 2862 2 1396 1397
M  V30 2863 1 1396 1402
M  V30 2864 1 1398 1399
M  V30 2865 1 1398 3890
M  V30 2866 1 1398 3891
M  V30 2867 2 1399 1400
M  V30 2868 1 1399 1401
M  V30 2869 1 1401 3892
M  V30 2870 1 1401 3893
M  V30 2871 1 1402 1403
M  V30 2872 1 1402 3894
M  V30 2873 1 1403 1404
M  V30 2874 1 1403 1406
M  V30 2875 1 1403 3895
M  V30 2876 2 1404 1405
M  V30 2877 1 1404 1407
M  V30 2878 1 1406 3896
M  V30 2879 1 1406 3897
M  V30 2880 1 1406 3898
M  V30 2881 1 1407 1408
M  V30 2882 1 1407 3899
M  V30 2883 1 1408 1409
M  V30 2884 1 1408 1411
M  V30 2885 1 1408 3900
M  V30 2886 2 1409 1410
M  V30 2887 1 1409 1418
M  V30 2888 1 1411 1412
M  V30 2889 1 1411 3901
M  V30 2890 1 1411 3902
M  V30 2891 2 1412 1413
M  V30 2892 1 1412 1414
M  V30 2893 1 1413 1415
M  V30 2894 1 1413 3903
M  V30 2895 2 1414 1416
M  V30 2896 1 1414 3904
M  V30 2897 2 1415 1417
M  V30 2898 1 1415 3905
M  V30 2899 1 1416 1417
M  V30 2900 1 1416 3906
M  V30 2901 1 1417 3907
M  V30 2902 1 1418 1419
M  V30 2903 1 1418 3908
M  V30 2904 1 1419 1420
M  V30 2905 1 1419 1422
M  V30 2906 1 1419 3909
M  V30 2907 2 1420 1421
M  V30 2908 1 1420 1425
M  V30 2909 1 1422 1423
M  V30 2910 1 1422 1424
M  V30 2911 1 1422 3910
M  V30 2912 1 1423 3911
M  V30 2913 1 1423 3912
M  V30 2914 1 1423 3913
M  V30 2915 1 1424 3914
M  V30 2916 1 1424 3915
M  V30 2917 1 1424 3916
M  V30 2918 1 1425 1426
M  V30 2919 1 1425 3917
M  V30 2920 1 1426 1427
M  V30 2921 1 1426 3918
M  V30 2922 1 1426 3919
M  V30 2923 2 1427 1428
M  V30 2924 1 1427 1429
M  V30 2925 1 1429 1430
M  V30 2926 1 1429 3920
M  V30 2927 1 1430 1431
M  V30 2928 1 1430 1433
M  V30 2929 1 1430 3921
M  V30 2930 2 1431 1432
M  V30 2931 1 1431 1436
M  V30 2932 1 1433 1434
M  V30 2933 1 1433 1435
M  V30 2934 1 1433 3922
M  V30 2935 1 1434 3923
M  V30 2936 1 1435 3924
M  V30 2937 1 1435 3925
M  V30 2938 1 1435 3926
M  V30 2939 1 1436 1437
M  V30 2940 1 1436 3927
M  V30 2941 1 1437 1438
M  V30 2942 1 1437 1440
M  V30 2943 1 1437 3928
M  V30 2944 2 1438 1439
M  V30 2945 1 1438 1447
M  V30 2946 1 1440 1441
M  V30 2947 1 1440 3929
M  V30 2948 1 1440 3930
M  V30 2949 1 1441 1442
M  V30 2950 1 1441 3931
M  V30 2951 1 1441 3932
M  V30 2952 1 1442 1443
M  V30 2953 1 1442 3933
M  V30 2954 1 1442 3934
M  V30 2955 1 1443 1444
M  V30 2956 1 1443 3935
M  V30 2957 1 1444 1445
M  V30 2958 2 1444 1446
M  V30 2959 1 1445 3936
M  V30 2960 1 1445 3937
M  V30 2961 1 1446 3938
M  V30 2962 1 1446 3939
M  V30 2963 1 1447 1448
M  V30 2964 1 1447 3940
M  V30 2965 1 1448 1449
M  V30 2966 1 1448 1451
M  V30 2967 1 1448 3941
M  V30 2968 2 1449 1450
M  V30 2969 1 1449 1453
M  V30 2970 1 1451 1452
M  V30 2971 1 1451 3942
M  V30 2972 1 1451 3943
M  V30 2973 1 1452 3944
M  V30 2974 1 1453 1454
M  V30 2975 1 1453 3945
M  V30 2976 1 1454 1455
M  V30 2977 1 1454 1457
M  V30 2978 1 1454 3946
M  V30 2979 2 1455 1456
M  V30 2980 1 1455 1465
M  V30 2981 1 1457 1458
M  V30 2982 1 1457 3947
M  V30 2983 1 1457 3948
M  V30 2984 2 1458 1459
M  V30 2985 1 1458 1460
M  V30 2986 1 1459 1461
M  V30 2987 1 1459 3949
M  V30 2988 2 1460 1462
M  V30 2989 1 1460 3950
M  V30 2990 2 1461 1463
M  V30 2991 1 1461 3951
M  V30 2992 1 1462 1463
M  V30 2993 1 1462 3952
M  V30 2994 1 1463 1464
M  V30 2995 1 1464 3953
M  V30 2996 1 1465 1466
M  V30 2997 1 1465 3954
M  V30 2998 1 1466 1467
M  V30 2999 1 1466 1469
M  V30 3000 1 1466 3955
M  V30 3001 2 1467 1468
M  V30 3002 1 1467 1473
M  V30 3003 1 1469 1470
M  V30 3004 1 1469 3956
M  V30 3005 1 1469 3957
M  V30 3006 1 1470 1471
M  V30 3007 1 1470 3958
M  V30 3008 1 1470 3959
M  V30 3009 1 1471 1472
M  V30 3010 1 1472 3960
M  V30 3011 1 1472 3961
M  V30 3012 1 1472 3962
M  V30 3013 1 1473 1474
M  V30 3014 1 1473 3963
M  V30 3015 1 1474 1475
M  V30 3016 1 1474 1477
M  V30 3017 1 1474 3964
M  V30 3018 2 1475 1476
M  V30 3019 1 1475 1479
M  V30 3020 1 1477 1478
M  V30 3021 1 1477 3965
M  V30 3022 1 1477 3966
M  V30 3023 1 1478 3967
M  V30 3024 1 1479 1480
M  V30 3025 1 1479 1485
M  V30 3026 1 1480 1481
M  V30 3027 1 1480 1483
M  V30 3028 1 1480 3968
M  V30 3029 2 1481 1482
M  V30 3030 1 1481 1486
M  V30 3031 1 1483 1484
M  V30 3032 1 1483 3969
M  V30 3033 1 1483 3970
M  V30 3034 1 1484 1485
M  V30 3035 1 1484 3971
M  V30 3036 1 1484 3972
M  V30 3037 1 1485 3973
M  V30 3038 1 1485 3974
M  V30 3039 1 1486 1487
M  V30 3040 1 1486 3975
M  V30 3041 1 1487 1488
M  V30 3042 1 1487 1490
M  V30 3043 1 1487 3976
M  V30 3044 2 1488 1489
M  V30 3045 1 1488 1495
M  V30 3046 1 1490 1491
M  V30 3047 1 1490 3977
M  V30 3048 1 1490 3978
M  V30 3049 1 1491 1492
M  V30 3050 1 1491 3979
M  V30 3051 1 1491 3980
M  V30 3052 2 1492 1493
M  V30 3053 1 1492 1494
M  V30 3054 1 1495 1496
M  V30 3055 1 1495 3981
M  V30 3056 1 1496 1497
M  V30 3057 1 1496 1499
M  V30 3058 1 1496 3982
M  V30 3059 2 1497 1498
M  V30 3060 1 1497 1506
M  V30 3061 1 1499 1500
M  V30 3062 1 1499 3983
M  V30 3063 1 1499 3984
M  V30 3064 1 1500 1501
M  V30 3065 1 1500 3985
M  V30 3066 1 1500 3986
M  V30 3067 1 1501 1502
M  V30 3068 1 1501 3987
M  V30 3069 1 1501 3988
M  V30 3070 1 1502 1503
M  V30 3071 1 1502 3989
M  V30 3072 1 1503 1504
M  V30 3073 2 1503 1505
M  V30 3074 1 1504 3990
M  V30 3075 1 1504 3991
M  V30 3076 1 1505 3992
M  V30 3077 1 1505 3993
M  V30 3078 1 1506 1507
M  V30 3079 1 1506 3994
M  V30 3080 1 1507 1508
M  V30 3081 1 1507 1510
M  V30 3082 1 1507 3995
M  V30 3083 2 1508 1509
M  V30 3084 1 1508 1514
M  V30 3085 1 1510 1511
M  V30 3086 1 1510 3996
M  V30 3087 1 1510 3997
M  V30 3088 1 1511 1512
M  V30 3089 1 1511 1513
M  V30 3090 1 1511 3998
M  V30 3091 1 1512 3999
M  V30 3092 1 1512 4000
M  V30 3093 1 1512 4001
M  V30 3094 1 1513 4002
M  V30 3095 1 1513 4003
M  V30 3096 1 1513 4004
M  V30 3097 1 1514 1515
M  V30 3098 1 1514 4005
M  V30 3099 1 1515 1516
M  V30 3100 1 1515 1518
M  V30 3101 1 1515 4006
M  V30 3102 2 1516 1517
M  V30 3103 1 1516 1523
M  V30 3104 1 1518 1519
M  V30 3105 1 1518 4007
M  V30 3106 1 1518 4008
M  V30 3107 1 1519 1520
M  V30 3108 1 1519 4009
M  V30 3109 1 1519 4010
M  V30 3110 2 1520 1521
M  V30 3111 1 1520 1522
M  V30 3112 1 1522 4011
M  V30 3113 1 1522 4012
M  V30 3114 1 1523 1524
M  V30 3115 1 1523 4013
M  V30 3116 1 1524 1525
M  V30 3117 1 1524 4014
M  V30 3118 1 1524 4015
M  V30 3119 2 1525 1526
M  V30 3120 1 1525 1527
M  V30 3121 1 1527 1528
M  V30 3122 1 1527 4016
M  V30 3123 1 1528 1529
M  V30 3124 1 1528 1531
M  V30 3125 1 1528 4017
M  V30 3126 2 1529 1530
M  V30 3127 1 1529 1534
M  V30 3128 1 1531 1532
M  V30 3129 1 1531 1533
M  V30 3130 1 1531 4018
M  V30 3131 1 1532 4019
M  V30 3132 1 1533 4020
M  V30 3133 1 1533 4021
M  V30 3134 1 1533 4022
M  V30 3135 1 1534 1535
M  V30 3136 1 1534 4023
M  V30 3137 1 1535 1536
M  V30 3138 1 1535 1538
M  V30 3139 1 1535 4024
M  V30 3140 2 1536 1537
M  V30 3141 1 1536 1544
M  V30 3142 1 1538 1539
M  V30 3143 1 1538 4025
M  V30 3144 1 1538 4026
M  V30 3145 1 1539 1540
M  V30 3146 2 1539 1541
M  V30 3147 2 1540 1542
M  V30 3148 1 1541 1543
M  V30 3149 1 1541 4027
M  V30 3150 1 1542 1543
M  V30 3151 1 1542 4028
M  V30 3152 1 1543 4923
M  V30 3153 1 1544 1545
M  V30 3154 1 1544 4029
M  V30 3155 1 1545 1546
M  V30 3156 1 1545 1548
M  V30 3157 1 1545 4030
M  V30 3158 2 1546 1547
M  V30 3159 1 1546 1556
M  V30 3160 1 1548 1549
M  V30 3161 1 1548 4031
M  V30 3162 1 1548 4032
M  V30 3163 2 1549 1550
M  V30 3164 1 1549 1551
M  V30 3165 1 1550 1552
M  V30 3166 1 1550 4033
M  V30 3167 2 1551 1553
M  V30 3168 1 1551 4034
M  V30 3169 2 1552 1554
M  V30 3170 1 1552 4035
M  V30 3171 1 1553 1554
M  V30 3172 1 1553 4036
M  V30 3173 1 1554 1555
M  V30 3174 1 1555 4037
M  V30 3175 1 1556 1557
M  V30 3176 1 1556 4038
M  V30 3177 1 1557 1558
M  V30 3178 1 1557 1560
M  V30 3179 1 1557 4039
M  V30 3180 2 1558 1559
M  V30 3181 1 1558 1562
M  V30 3182 1 1560 1561
M  V30 3183 1 1560 4040
M  V30 3184 1 1560 4041
M  V30 3185 1 1561 4042
M  V30 3186 1 1562 1563
M  V30 3187 1 1562 4043
M  V30 3188 1 1563 1564
M  V30 3189 1 1563 1566
M  V30 3190 1 1563 4044
M  V30 3191 2 1564 1565
M  V30 3192 1 1564 1569
M  V30 3193 1 1566 1567
M  V30 3194 1 1566 1568
M  V30 3195 1 1566 4045
M  V30 3196 1 1567 4046
M  V30 3197 1 1567 4047
M  V30 3198 1 1567 4048
M  V30 3199 1 1568 4049
M  V30 3200 1 1568 4050
M  V30 3201 1 1568 4051
M  V30 3202 1 1569 1570
M  V30 3203 1 1569 4052
M  V30 3204 1 1570 1571
M  V30 3205 1 1570 1573
M  V30 3206 1 1570 4053
M  V30 3207 2 1571 1572
M  V30 3208 1 1571 1578
M  V30 3209 1 1573 1574
M  V30 3210 1 1573 4054
M  V30 3211 1 1573 4055
M  V30 3212 1 1574 1575
M  V30 3213 1 1574 4056
M  V30 3214 1 1574 4057
M  V30 3215 2 1575 1576
M  V30 3216 1 1575 1577
M  V30 3217 1 1577 4058
M  V30 3218 1 1577 4059
M  V30 3219 1 1578 1579
M  V30 3220 1 1578 4060
M  V30 3221 1 1579 1580
M  V30 3222 1 1579 1582
M  V30 3223 1 1579 4061
M  V30 3224 2 1580 1581
M  V30 3225 1 1580 1584
M  V30 3226 1 1582 1583
M  V30 3227 1 1582 4062
M  V30 3228 1 1582 4063
M  V30 3229 1 1583 4064
M  V30 3230 1 1584 1585
M  V30 3231 1 1584 4065
M  V30 3232 1 1585 1586
M  V30 3233 1 1585 1588
M  V30 3234 1 1585 4066
M  V30 3235 2 1586 1587
M  V30 3236 1 1586 1592
M  V30 3237 1 1588 1589
M  V30 3238 1 1588 4067
M  V30 3239 1 1588 4068
M  V30 3240 2 1589 1590
M  V30 3241 1 1589 1591
M  V30 3242 1 1592 1593
M  V30 3243 1 1592 4069
M  V30 3244 1 1593 1594
M  V30 3245 1 1593 1596
M  V30 3246 1 1593 4070
M  V30 3247 2 1594 1595
M  V30 3248 1 1594 1600
M  V30 3249 1 1596 1597
M  V30 3250 1 1596 1598
M  V30 3251 1 1596 4071
M  V30 3252 1 1597 1599
M  V30 3253 1 1597 4072
M  V30 3254 1 1597 4073
M  V30 3255 1 1598 4074
M  V30 3256 1 1598 4075
M  V30 3257 1 1598 4076
M  V30 3258 1 1599 4077
M  V30 3259 1 1599 4078
M  V30 3260 1 1599 4079
M  V30 3261 1 1600 1601
M  V30 3262 1 1600 4080
M  V30 3263 1 1601 1602
M  V30 3264 1 1601 1604
M  V30 3265 1 1601 4081
M  V30 3266 2 1602 1603
M  V30 3267 1 1602 1614
M  V30 3268 1 1604 1605
M  V30 3269 1 1604 4082
M  V30 3270 1 1604 4083
M  V30 3271 2 1605 1606
M  V30 3272 1 1605 1607
M  V30 3273 1 1606 1608
M  V30 3274 1 1606 4084
M  V30 3275 2 1607 1609
M  V30 3276 1 1607 1610
M  V30 3277 1 1608 1609
M  V30 3278 1 1608 4085
M  V30 3279 1 1609 1611
M  V30 3280 2 1610 1612
M  V30 3281 1 1610 4086
M  V30 3282 2 1611 1613
M  V30 3283 1 1611 4087
M  V30 3284 1 1612 1613
M  V30 3285 1 1612 4088
M  V30 3286 1 1613 4089
M  V30 3287 1 1614 1615
M  V30 3288 1 1614 4090
M  V30 3289 1 1615 1616
M  V30 3290 1 1615 1618
M  V30 3291 1 1615 4091
M  V30 3292 2 1616 1617
M  V30 3293 1 1616 1620
M  V30 3294 1 1618 1619
M  V30 3295 1 1618 4092
M  V30 3296 1 1618 4093
M  V30 3297 1 1619 4094
M  V30 3298 1 1620 1621
M  V30 3299 1 1620 4095
M  V30 3300 1 1621 1622
M  V30 3301 1 1621 1624
M  V30 3302 1 1621 4096
M  V30 3303 2 1622 1623
M  V30 3304 1 1622 1628
M  V30 3305 1 1624 1625
M  V30 3306 1 1624 4097
M  V30 3307 1 1624 4098
M  V30 3308 1 1625 1626
M  V30 3309 1 1625 4099
M  V30 3310 1 1625 4100
M  V30 3311 1 1626 1627
M  V30 3312 1 1627 4101
M  V30 3313 1 1627 4102
M  V30 3314 1 1627 4103
M  V30 3315 1 1628 1629
M  V30 3316 1 1628 4104
M  V30 3317 1 1629 1630
M  V30 3318 1 1629 4105
M  V30 3319 1 1629 4106
M  V30 3320 2 1630 1631
M  V30 3321 1 1630 1632
M  V30 3322 1 1632 1633
M  V30 3323 1 1632 4107
M  V30 3324 1 1633 1634
M  V30 3325 1 1633 1636
M  V30 3326 1 1633 4108
M  V30 3327 2 1634 1635
M  V30 3328 1 1634 1640
M  V30 3329 1 1636 1637
M  V30 3330 1 1636 4109
M  V30 3331 1 1636 4110
M  V30 3332 1 1637 1638
M  V30 3333 1 1637 1639
M  V30 3334 1 1637 4111
M  V30 3335 1 1638 4112
M  V30 3336 1 1638 4113
M  V30 3337 1 1638 4114
M  V30 3338 1 1639 4115
M  V30 3339 1 1639 4116
M  V30 3340 1 1639 4117
M  V30 3341 1 1640 1641
M  V30 3342 1 1640 4118
M  V30 3343 1 1641 1642
M  V30 3344 1 1641 1644
M  V30 3345 1 1641 4119
M  V30 3346 2 1642 1643
M  V30 3347 1 1642 1646
M  V30 3348 1 1644 1645
M  V30 3349 1 1644 4120
M  V30 3350 1 1644 4121
M  V30 3351 1 1645 4122
M  V30 3352 1 1646 1647
M  V30 3353 1 1646 4123
M  V30 3354 1 1647 1648
M  V30 3355 1 1647 1650
M  V30 3356 1 1647 4124
M  V30 3357 2 1648 1649
M  V30 3358 1 1648 1654
M  V30 3359 1 1650 1651
M  V30 3360 1 1650 4125
M  V30 3361 1 1650 4126
M  V30 3362 1 1651 1652
M  V30 3363 1 1651 1653
M  V30 3364 1 1651 4127
M  V30 3365 1 1652 4128
M  V30 3366 1 1652 4129
M  V30 3367 1 1652 4130
M  V30 3368 1 1653 4131
M  V30 3369 1 1653 4132
M  V30 3370 1 1653 4133
M  V30 3371 1 1654 1655
M  V30 3372 1 1654 4134
M  V30 3373 1 1655 1656
M  V30 3374 1 1655 1658
M  V30 3375 1 1655 4135
M  V30 3376 2 1656 1657
M  V30 3377 1 1656 1661
M  V30 3378 1 1658 1659
M  V30 3379 1 1658 1660
M  V30 3380 1 1658 4136
M  V30 3381 1 1659 4137
M  V30 3382 1 1659 4138
M  V30 3383 1 1659 4139
M  V30 3384 1 1660 4140
M  V30 3385 1 1660 4141
M  V30 3386 1 1660 4142
M  V30 3387 1 1661 1662
M  V30 3388 1 1661 4143
M  V30 3389 1 1662 1663
M  V30 3390 1 1662 1665
M  V30 3391 1 1662 4144
M  V30 3392 2 1663 1664
M  V30 3393 1 1663 1670
M  V30 3394 1 1665 1666
M  V30 3395 1 1665 4145
M  V30 3396 1 1665 4146
M  V30 3397 1 1666 1667
M  V30 3398 1 1666 4147
M  V30 3399 1 1666 4148
M  V30 3400 2 1667 1668
M  V30 3401 1 1667 1669
M  V30 3402 1 1670 1671
M  V30 3403 1 1670 4149
M  V30 3404 1 1671 1672
M  V30 3405 1 1671 1674
M  V30 3406 1 1671 4150
M  V30 3407 2 1672 1673
M  V30 3408 1 1672 1678
M  V30 3409 1 1674 1675
M  V30 3410 1 1674 4151
M  V30 3411 1 1674 4152
M  V30 3412 1 1675 1676
M  V30 3413 1 1675 4153
M  V30 3414 1 1675 4154
M  V30 3415 1 1676 1677
M  V30 3416 1 1677 4155
M  V30 3417 1 1677 4156
M  V30 3418 1 1677 4157
M  V30 3419 1 1678 1679
M  V30 3420 1 1678 4158
M  V30 3421 1 1679 1680
M  V30 3422 1 1679 1682
M  V30 3423 1 1679 4159
M  V30 3424 2 1680 1681
M  V30 3425 1 1680 1683
M  V30 3426 1 1682 4160
M  V30 3427 1 1682 4161
M  V30 3428 1 1682 4162
M  V30 3429 1 1683 1684
M  V30 3430 1 1683 4163
M  V30 3431 1 1684 1685
M  V30 3432 1 1684 1687
M  V30 3433 1 1684 4164
M  V30 3434 2 1685 1686
M  V30 3435 1 1685 1690
M  V30 3436 1 1687 1688
M  V30 3437 1 1687 1689
M  V30 3438 1 1687 4165
M  V30 3439 1 1688 4166
M  V30 3440 1 1688 4167
M  V30 3441 1 1688 4168
M  V30 3442 1 1689 4169
M  V30 3443 1 1689 4170
M  V30 3444 1 1689 4171
M  V30 3445 1 1690 1691
M  V30 3446 1 1690 4172
M  V30 3447 1 1691 1692
M  V30 3448 1 1691 4173
M  V30 3449 1 1691 4174
M  V30 3450 2 1692 1693
M  V30 3451 1 1692 1694
M  V30 3452 1 1694 1695
M  V30 3453 1 1694 4175
M  V30 3454 1 1695 1696
M  V30 3455 1 1695 1698
M  V30 3456 1 1695 4176
M  V30 3457 2 1696 1697
M  V30 3458 1 1696 1705
M  V30 3459 1 1698 1699
M  V30 3460 1 1698 4177
M  V30 3461 1 1698 4178
M  V30 3462 1 1699 1700
M  V30 3463 1 1699 4179
M  V30 3464 1 1699 4180
M  V30 3465 1 1700 1701
M  V30 3466 1 1700 4181
M  V30 3467 1 1700 4182
M  V30 3468 1 1701 1702
M  V30 3469 1 1701 4183
M  V30 3470 1 1702 1703
M  V30 3471 2 1702 1704
M  V30 3472 1 1703 4184
M  V30 3473 1 1703 4185
M  V30 3474 1 1704 4186
M  V30 3475 1 1704 4187
M  V30 3476 1 1705 1706
M  V30 3477 1 1705 4188
M  V30 3478 1 1706 1707
M  V30 3479 1 1706 1709
M  V30 3480 1 1706 4189
M  V30 3481 2 1707 1708
M  V30 3482 1 1707 1717
M  V30 3483 1 1709 1710
M  V30 3484 1 1709 4190
M  V30 3485 1 1709 4191
M  V30 3486 2 1710 1711
M  V30 3487 1 1710 1712
M  V30 3488 1 1711 1713
M  V30 3489 1 1711 4192
M  V30 3490 2 1712 1714
M  V30 3491 1 1712 4193
M  V30 3492 2 1713 1715
M  V30 3493 1 1713 4194
M  V30 3494 1 1714 1715
M  V30 3495 1 1714 4195
M  V30 3496 1 1715 1716
M  V30 3497 1 1716 4196
M  V30 3498 1 1717 1718
M  V30 3499 1 1717 1723
M  V30 3500 1 1718 1719
M  V30 3501 1 1718 1721
M  V30 3502 1 1718 4197
M  V30 3503 2 1719 1720
M  V30 3504 1 1719 1724
M  V30 3505 1 1721 1722
M  V30 3506 1 1721 4198
M  V30 3507 1 1721 4199
M  V30 3508 1 1722 1723
M  V30 3509 1 1722 4200
M  V30 3510 1 1722 4201
M  V30 3511 1 1723 4202
M  V30 3512 1 1723 4203
M  V30 3513 1 1724 1725
M  V30 3514 1 1724 4204
M  V30 3515 1 1725 1726
M  V30 3516 1 1725 1728
M  V30 3517 1 1725 4205
M  V30 3518 2 1726 1727
M  V30 3519 1 1726 1732
M  V30 3520 1 1728 1729
M  V30 3521 1 1728 1730
M  V30 3522 1 1728 4206
M  V30 3523 1 1729 1731
M  V30 3524 1 1729 4207
M  V30 3525 1 1729 4208
M  V30 3526 1 1730 4209
M  V30 3527 1 1730 4210
M  V30 3528 1 1730 4211
M  V30 3529 1 1731 4212
M  V30 3530 1 1731 4213
M  V30 3531 1 1731 4214
M  V30 3532 1 1732 1733
M  V30 3533 1 1732 1738
M  V30 3534 1 1733 1734
M  V30 3535 1 1733 1736
M  V30 3536 1 1733 4215
M  V30 3537 2 1734 1735
M  V30 3538 1 1734 1739
M  V30 3539 1 1736 1737
M  V30 3540 1 1736 4216
M  V30 3541 1 1736 4217
M  V30 3542 1 1737 1738
M  V30 3543 1 1737 4218
M  V30 3544 1 1737 4219
M  V30 3545 1 1738 4220
M  V30 3546 1 1738 4221
M  V30 3547 1 1739 1740
M  V30 3548 1 1739 1745
M  V30 3549 1 1740 1741
M  V30 3550 1 1740 1743
M  V30 3551 1 1740 4222
M  V30 3552 2 1741 1742
M  V30 3553 1 1741 1746
M  V30 3554 1 1743 1744
M  V30 3555 1 1743 4223
M  V30 3556 1 1743 4224
M  V30 3557 1 1744 1745
M  V30 3558 1 1744 4225
M  V30 3559 1 1744 4226
M  V30 3560 1 1745 4227
M  V30 3561 1 1745 4228
M  V30 3562 1 1746 1747
M  V30 3563 1 1746 1752
M  V30 3564 1 1747 1748
M  V30 3565 1 1747 1750
M  V30 3566 1 1747 4229
M  V30 3567 2 1748 1749
M  V30 3568 1 1748 1753
M  V30 3569 1 1750 1751
M  V30 3570 1 1750 4230
M  V30 3571 1 1750 4231
M  V30 3572 1 1751 1752
M  V30 3573 1 1751 4232
M  V30 3574 1 1751 4233
M  V30 3575 1 1752 4234
M  V30 3576 1 1752 4235
M  V30 3577 1 1753 1754
M  V30 3578 1 1753 4236
M  V30 3579 1 1754 1755
M  V30 3580 1 1754 1757
M  V30 3581 1 1754 4237
M  V30 3582 2 1755 1756
M  V30 3583 1 1755 1761
M  V30 3584 1 1757 1758
M  V30 3585 1 1757 4238
M  V30 3586 1 1757 4239
M  V30 3587 2 1758 1759
M  V30 3588 1 1758 1760
M  V30 3589 1 1761 1762
M  V30 3590 1 1761 4240
M  V30 3591 1 1762 1763
M  V30 3592 1 1762 1765
M  V30 3593 1 1762 4241
M  V30 3594 2 1763 1764
M  V30 3595 1 1763 1766
M  V30 3596 1 1765 4242
M  V30 3597 1 1765 4243
M  V30 3598 1 1765 4244
M  V30 3599 1 1766 1767
M  V30 3600 1 1766 4245
M  V30 3601 1 1767 1768
M  V30 3602 1 1767 1770
M  V30 3603 1 1767 4246
M  V30 3604 2 1768 1769
M  V30 3605 1 1768 1775
M  V30 3606 1 1770 1771
M  V30 3607 1 1770 4247
M  V30 3608 1 1770 4248
M  V30 3609 1 1771 1772
M  V30 3610 1 1771 4249
M  V30 3611 1 1771 4250
M  V30 3612 1 1772 1773
M  V30 3613 1 1772 4251
M  V30 3614 1 1772 4252
M  V30 3615 1 1773 1774
M  V30 3616 1 1773 4253
M  V30 3617 1 1773 4254
M  V30 3618 1 1774 4255
M  V30 3619 1 1774 4256
M  V30 3620 1 1774 4257
M  V30 3621 1 1775 1776
M  V30 3622 1 1775 4258
M  V30 3623 1 1776 1777
M  V30 3624 1 1776 1779
M  V30 3625 1 1776 4259
M  V30 3626 2 1777 1778
M  V30 3627 1 1777 1784
M  V30 3628 1 1779 1780
M  V30 3629 1 1779 4260
M  V30 3630 1 1779 4261
M  V30 3631 1 1780 1781
M  V30 3632 1 1780 4262
M  V30 3633 1 1780 4263
M  V30 3634 2 1781 1782
M  V30 3635 1 1781 1783
M  V30 3636 1 1784 1785
M  V30 3637 1 1784 4264
M  V30 3638 1 1785 1786
M  V30 3639 1 1785 1788
M  V30 3640 1 1785 4265
M  V30 3641 2 1786 1787
M  V30 3642 1 1786 1792
M  V30 3643 1 1788 1789
M  V30 3644 1 1788 4266
M  V30 3645 1 1788 4267
M  V30 3646 1 1789 1790
M  V30 3647 1 1789 1791
M  V30 3648 1 1789 4268
M  V30 3649 1 1790 4269
M  V30 3650 1 1790 4270
M  V30 3651 1 1790 4271
M  V30 3652 1 1791 4272
M  V30 3653 1 1791 4273
M  V30 3654 1 1791 4274
M  V30 3655 1 1792 1793
M  V30 3656 1 1792 4275
M  V30 3657 1 1793 1794
M  V30 3658 1 1793 1796
M  V30 3659 1 1793 4276
M  V30 3660 2 1794 1795
M  V30 3661 1 1794 1801
M  V30 3662 1 1796 1797
M  V30 3663 1 1796 4277
M  V30 3664 1 1796 4278
M  V30 3665 1 1797 1798
M  V30 3666 1 1797 4279
M  V30 3667 1 1797 4280
M  V30 3668 2 1798 1799
M  V30 3669 1 1798 1800
M  V30 3670 1 1801 1802
M  V30 3671 1 1801 4281
M  V30 3672 1 1802 1803
M  V30 3673 1 1802 1805
M  V30 3674 1 1802 4282
M  V30 3675 2 1803 1804
M  V30 3676 1 1803 1809
M  V30 3677 1 1805 1806
M  V30 3678 1 1805 4283
M  V30 3679 1 1805 4284
M  V30 3680 1 1806 1807
M  V30 3681 1 1806 1808
M  V30 3682 1 1806 4285
M  V30 3683 1 1807 4286
M  V30 3684 1 1807 4287
M  V30 3685 1 1807 4288
M  V30 3686 1 1808 4289
M  V30 3687 1 1808 4290
M  V30 3688 1 1808 4291
M  V30 3689 1 1809 1810
M  V30 3690 1 1809 4292
M  V30 3691 1 1810 1811
M  V30 3692 1 1810 1813
M  V30 3693 1 1810 4293
M  V30 3694 2 1811 1812
M  V30 3695 1 1811 4294
M  V30 3696 1 1813 1814
M  V30 3697 1 1813 4295
M  V30 3698 1 1813 4296
M  V30 3699 1 1814 1815
M  V30 3700 1 1814 4297
M  V30 3701 1 1814 4298
M  V30 3702 1 1815 1816
M  V30 3703 1 1816 4299
M  V30 3704 1 1816 4300
M  V30 3705 1 1816 4301
M  V30 3706 1 1817 1818
M  V30 3707 1 1817 1823
M  V30 3708 1 1817 4302
M  V30 3709 1 1818 1819
M  V30 3710 1 1818 1821
M  V30 3711 1 1818 4303
M  V30 3712 2 1819 1820
M  V30 3713 1 1819 1824
M  V30 3714 1 1821 1822
M  V30 3715 1 1821 4304
M  V30 3716 1 1821 4305
M  V30 3717 1 1822 1823
M  V30 3718 1 1822 4306
M  V30 3719 1 1822 4307
M  V30 3720 1 1823 4308
M  V30 3721 1 1823 4309
M  V30 3722 1 1824 1825
M  V30 3723 1 1824 4310
M  V30 3724 1 1825 1826
M  V30 3725 1 1825 1828
M  V30 3726 1 1825 4311
M  V30 3727 2 1826 1827
M  V30 3728 1 1826 1832
M  V30 3729 1 1828 1829
M  V30 3730 1 1828 4312
M  V30 3731 1 1828 4313
M  V30 3732 1 1829 1830
M  V30 3733 1 1829 4314
M  V30 3734 1 1829 4315
M  V30 3735 1 1830 1831
M  V30 3736 1 1831 4316
M  V30 3737 1 1831 4317
M  V30 3738 1 1831 4318
M  V30 3739 1 1832 1833
M  V30 3740 1 1832 4319
M  V30 3741 1 1833 1834
M  V30 3742 1 1833 1836
M  V30 3743 1 1833 4320
M  V30 3744 2 1834 1835
M  V30 3745 1 1834 1837
M  V30 3746 1 1836 4321
M  V30 3747 1 1836 4322
M  V30 3748 1 1836 4323
M  V30 3749 1 1837 1838
M  V30 3750 1 1837 4324
M  V30 3751 1 1838 1839
M  V30 3752 1 1838 1841
M  V30 3753 1 1838 4325
M  V30 3754 2 1839 1840
M  V30 3755 1 1839 1845
M  V30 3756 1 1841 1842
M  V30 3757 1 1841 1843
M  V30 3758 1 1841 4326
M  V30 3759 1 1842 1844
M  V30 3760 1 1842 4327
M  V30 3761 1 1842 4328
M  V30 3762 1 1843 4329
M  V30 3763 1 1843 4330
M  V30 3764 1 1843 4331
M  V30 3765 1 1844 4332
M  V30 3766 1 1844 4333
M  V30 3767 1 1844 4334
M  V30 3768 1 1845 1846
M  V30 3769 1 1845 4335
M  V30 3770 1 1846 1847
M  V30 3771 1 1846 1849
M  V30 3772 1 1846 4336
M  V30 3773 2 1847 1848
M  V30 3774 1 1847 1856
M  V30 3775 1 1849 1850
M  V30 3776 1 1849 4337
M  V30 3777 1 1849 4338
M  V30 3778 2 1850 1851
M  V30 3779 1 1850 1852
M  V30 3780 1 1851 1853
M  V30 3781 1 1851 4339
M  V30 3782 2 1852 1854
M  V30 3783 1 1852 4340
M  V30 3784 2 1853 1855
M  V30 3785 1 1853 4341
M  V30 3786 1 1854 1855
M  V30 3787 1 1854 4342
M  V30 3788 1 1855 4343
M  V30 3789 1 1856 1857
M  V30 3790 1 1856 4344
M  V30 3791 1 1857 1858
M  V30 3792 1 1857 1860
M  V30 3793 1 1857 4345
M  V30 3794 2 1858 1859
M  V30 3795 1 1858 1865
M  V30 3796 1 1860 1861
M  V30 3797 1 1860 4346
M  V30 3798 1 1860 4347
M  V30 3799 1 1861 1862
M  V30 3800 1 1861 4348
M  V30 3801 1 1861 4349
M  V30 3802 2 1862 1863
M  V30 3803 1 1862 1864
M  V30 3804 1 1865 1866
M  V30 3805 1 1865 4350
M  V30 3806 1 1866 1867
M  V30 3807 1 1866 1869
M  V30 3808 1 1866 4351
M  V30 3809 2 1867 1868
M  V30 3810 1 1867 1873
M  V30 3811 1 1869 1870
M  V30 3812 1 1869 4352
M  V30 3813 1 1869 4353
M  V30 3814 1 1870 1871
M  V30 3815 1 1870 1872
M  V30 3816 1 1870 4354
M  V30 3817 1 1871 4355
M  V30 3818 1 1871 4356
M  V30 3819 1 1871 4357
M  V30 3820 1 1872 4358
M  V30 3821 1 1872 4359
M  V30 3822 1 1872 4360
M  V30 3823 1 1873 1874
M  V30 3824 1 1873 4361
M  V30 3825 1 1874 1875
M  V30 3826 1 1874 1877
M  V30 3827 1 1874 4362
M  V30 3828 2 1875 1876
M  V30 3829 1 1875 1881
M  V30 3830 1 1877 1878
M  V30 3831 1 1877 4363
M  V30 3832 1 1877 4364
M  V30 3833 1 1878 1879
M  V30 3834 1 1878 1880
M  V30 3835 1 1878 4365
M  V30 3836 1 1879 4366
M  V30 3837 1 1879 4367
M  V30 3838 1 1879 4368
M  V30 3839 1 1880 4369
M  V30 3840 1 1880 4370
M  V30 3841 1 1880 4371
M  V30 3842 1 1881 1882
M  V30 3843 1 1881 4372
M  V30 3844 1 1882 1883
M  V30 3845 1 1882 1885
M  V30 3846 1 1882 4373
M  V30 3847 2 1883 1884
M  V30 3848 1 1883 1889
M  V30 3849 1 1885 1886
M  V30 3850 1 1885 4374
M  V30 3851 1 1885 4375
M  V30 3852 2 1886 1887
M  V30 3853 1 1886 1888
M  V30 3854 1 1889 1890
M  V30 3855 1 1889 4376
M  V30 3856 1 1890 1891
M  V30 3857 1 1890 1893
M  V30 3858 1 1890 4377
M  V30 3859 2 1891 1892
M  V30 3860 1 1891 1901
M  V30 3861 1 1893 1894
M  V30 3862 1 1893 4378
M  V30 3863 1 1893 4379
M  V30 3864 2 1894 1895
M  V30 3865 1 1894 1896
M  V30 3866 1 1895 1897
M  V30 3867 1 1895 4380
M  V30 3868 2 1896 1898
M  V30 3869 1 1896 4381
M  V30 3870 2 1897 1899
M  V30 3871 1 1897 4382
M  V30 3872 1 1898 1899
M  V30 3873 1 1898 4383
M  V30 3874 1 1899 1900
M  V30 3875 1 1900 4384
M  V30 3876 1 1901 1902
M  V30 3877 1 1901 4385
M  V30 3878 1 1902 1903
M  V30 3879 1 1902 1905
M  V30 3880 1 1902 4386
M  V30 3881 2 1903 1904
M  V30 3882 1 1903 1909
M  V30 3883 1 1905 1906
M  V30 3884 1 1905 1907
M  V30 3885 1 1905 4387
M  V30 3886 1 1906 1908
M  V30 3887 1 1906 4388
M  V30 3888 1 1906 4389
M  V30 3889 1 1907 4390
M  V30 3890 1 1907 4391
M  V30 3891 1 1907 4392
M  V30 3892 1 1908 4393
M  V30 3893 1 1908 4394
M  V30 3894 1 1908 4395
M  V30 3895 1 1909 1910
M  V30 3896 1 1909 4396
M  V30 3897 1 1910 1911
M  V30 3898 1 1910 1913
M  V30 3899 1 1910 4397
M  V30 3900 2 1911 1912
M  V30 3901 1 1911 1916
M  V30 3902 1 1913 1914
M  V30 3903 1 1913 1915
M  V30 3904 1 1913 4398
M  V30 3905 1 1914 4399
M  V30 3906 1 1914 4400
M  V30 3907 1 1914 4401
M  V30 3908 1 1915 4402
M  V30 3909 1 1915 4403
M  V30 3910 1 1915 4404
M  V30 3911 1 1916 1917
M  V30 3912 1 1916 4405
M  V30 3913 1 1917 1918
M  V30 3914 1 1917 1920
M  V30 3915 1 1917 4406
M  V30 3916 2 1918 1919
M  V30 3917 1 1918 1924
M  V30 3918 1 1920 1921
M  V30 3919 1 1920 4407
M  V30 3920 1 1920 4408
M  V30 3921 2 1921 1922
M  V30 3922 1 1921 1923
M  V30 3923 1 1923 4409
M  V30 3924 1 1923 4410
M  V30 3925 1 1924 1925
M  V30 3926 1 1924 4411
M  V30 3927 1 1925 1926
M  V30 3928 1 1925 1928
M  V30 3929 1 1925 4412
M  V30 3930 2 1926 1927
M  V30 3931 1 1926 1933
M  V30 3932 1 1928 1929
M  V30 3933 1 1928 4413
M  V30 3934 1 1928 4414
M  V30 3935 1 1929 1930
M  V30 3936 1 1929 4415
M  V30 3937 1 1929 4416
M  V30 3938 2 1930 1931
M  V30 3939 1 1930 1932
M  V30 3940 1 1933 1934
M  V30 3941 1 1933 1939
M  V30 3942 1 1934 1935
M  V30 3943 1 1934 1937
M  V30 3944 1 1934 4417
M  V30 3945 2 1935 1936
M  V30 3946 1 1935 1940
M  V30 3947 1 1937 1938
M  V30 3948 1 1937 4418
M  V30 3949 1 1937 4419
M  V30 3950 1 1938 1939
M  V30 3951 1 1938 4420
M  V30 3952 1 1938 4421
M  V30 3953 1 1939 4422
M  V30 3954 1 1939 4423
M  V30 3955 1 1940 1941
M  V30 3956 1 1940 1946
M  V30 3957 1 1941 1942
M  V30 3958 1 1941 1944
M  V30 3959 1 1941 4424
M  V30 3960 2 1942 1943
M  V30 3961 1 1942 1947
M  V30 3962 1 1944 1945
M  V30 3963 1 1944 4425
M  V30 3964 1 1944 4426
M  V30 3965 1 1945 1946
M  V30 3966 1 1945 4427
M  V30 3967 1 1945 4428
M  V30 3968 1 1946 4429
M  V30 3969 1 1946 4430
M  V30 3970 1 1947 1948
M  V30 3971 1 1947 1953
M  V30 3972 1 1948 1949
M  V30 3973 1 1948 1951
M  V30 3974 1 1948 4431
M  V30 3975 2 1949 1950
M  V30 3976 1 1949 1954
M  V30 3977 1 1951 1952
M  V30 3978 1 1951 4432
M  V30 3979 1 1951 4433
M  V30 3980 1 1952 1953
M  V30 3981 1 1952 4434
M  V30 3982 1 1952 4435
M  V30 3983 1 1953 4436
M  V30 3984 1 1953 4437
M  V30 3985 1 1954 1955
M  V30 3986 1 1954 4438
M  V30 3987 1 1955 1956
M  V30 3988 1 1955 1958
M  V30 3989 1 1955 4439
M  V30 3990 2 1956 1957
M  V30 3991 1 1956 1963
M  V30 3992 1 1958 1959
M  V30 3993 1 1958 4440
M  V30 3994 1 1958 4441
M  V30 3995 1 1959 1960
M  V30 3996 1 1959 4442
M  V30 3997 1 1959 4443
M  V30 3998 1 1960 1961
M  V30 3999 1 1960 4444
M  V30 4000 1 1960 4445
M  V30 4001 1 1961 1962
M  V30 4002 1 1961 4446
M  V30 4003 1 1961 4447
M  V30 4004 1 1962 4448
M  V30 4005 1 1962 4449
M  V30 4006 1 1962 4450
M  V30 4007 1 1963 1964
M  V30 4008 1 1963 4451
M  V30 4009 1 1964 1965
M  V30 4010 1 1964 1967
M  V30 4011 1 1964 4452
M  V30 4012 2 1965 1966
M  V30 4013 1 1965 1971
M  V30 4014 1 1967 1968
M  V30 4015 1 1967 4453
M  V30 4016 1 1967 4454
M  V30 4017 1 1968 1969
M  V30 4018 1 1968 1970
M  V30 4019 1 1968 4455
M  V30 4020 1 1969 4456
M  V30 4021 1 1969 4457
M  V30 4022 1 1969 4458
M  V30 4023 1 1970 4459
M  V30 4024 1 1970 4460
M  V30 4025 1 1970 4461
M  V30 4026 1 1971 1972
M  V30 4027 1 1971 1977
M  V30 4028 1 1972 1973
M  V30 4029 1 1972 1975
M  V30 4030 1 1972 4462
M  V30 4031 2 1973 1974
M  V30 4032 1 1973 1978
M  V30 4033 1 1975 1976
M  V30 4034 1 1975 4463
M  V30 4035 1 1975 4464
M  V30 4036 1 1976 1977
M  V30 4037 1 1976 4465
M  V30 4038 1 1976 4466
M  V30 4039 1 1977 4467
M  V30 4040 1 1977 4468
M  V30 4041 1 1978 1979
M  V30 4042 1 1978 4469
M  V30 4043 1 1979 1980
M  V30 4044 1 1979 1982
M  V30 4045 1 1979 4470
M  V30 4046 2 1980 1981
M  V30 4047 1 1980 1984
M  V30 4048 1 1982 1983
M  V30 4049 1 1982 4471
M  V30 4050 1 1982 4472
M  V30 4051 1 1983 4473
M  V30 4052 1 1984 1985
M  V30 4053 1 1984 4474
M  V30 4054 1 1985 1986
M  V30 4055 1 1985 4475
M  V30 4056 1 1985 4476
M  V30 4057 2 1986 1987
M  V30 4058 1 1986 1988
M  V30 4059 1 1988 1989
M  V30 4060 1 1988 4477
M  V30 4061 1 1989 1990
M  V30 4062 1 1989 1992
M  V30 4063 1 1989 4478
M  V30 4064 2 1990 1991
M  V30 4065 1 1990 1995
M  V30 4066 1 1992 1993
M  V30 4067 1 1992 1994
M  V30 4068 1 1992 4479
M  V30 4069 1 1993 4480
M  V30 4070 1 1993 4481
M  V30 4071 1 1993 4482
M  V30 4072 1 1994 4483
M  V30 4073 1 1994 4484
M  V30 4074 1 1994 4485
M  V30 4075 1 1995 1996
M  V30 4076 1 1995 4486
M  V30 4077 1 1996 1997
M  V30 4078 1 1996 1999
M  V30 4079 1 1996 4487
M  V30 4080 2 1997 1998
M  V30 4081 1 1997 2006
M  V30 4082 1 1999 2000
M  V30 4083 1 1999 4488
M  V30 4084 1 1999 4489
M  V30 4085 2 2000 2001
M  V30 4086 1 2000 2002
M  V30 4087 1 2001 2003
M  V30 4088 1 2001 4490
M  V30 4089 2 2002 2004
M  V30 4090 1 2002 4491
M  V30 4091 2 2003 2005
M  V30 4092 1 2003 4492
M  V30 4093 1 2004 2005
M  V30 4094 1 2004 4493
M  V30 4095 1 2005 4494
M  V30 4096 1 2006 2007
M  V30 4097 1 2006 4495
M  V30 4098 1 2007 2008
M  V30 4099 1 2007 2010
M  V30 4100 1 2007 4496
M  V30 4101 2 2008 2009
M  V30 4102 1 2008 2012
M  V30 4103 1 2010 2011
M  V30 4104 1 2010 4497
M  V30 4105 1 2010 4498
M  V30 4106 1 2011 4499
M  V30 4107 1 2012 2013
M  V30 4108 1 2012 4500
M  V30 4109 1 2013 2014
M  V30 4110 1 2013 2016
M  V30 4111 1 2013 4501
M  V30 4112 2 2014 2015
M  V30 4113 1 2014 2020
M  V30 4114 1 2016 2017
M  V30 4115 1 2016 4502
M  V30 4116 1 2016 4503
M  V30 4117 1 2017 2018
M  V30 4118 1 2017 2019
M  V30 4119 1 2017 4504
M  V30 4120 1 2018 4505
M  V30 4121 1 2018 4506
M  V30 4122 1 2018 4507
M  V30 4123 1 2019 4508
M  V30 4124 1 2019 4509
M  V30 4125 1 2019 4510
M  V30 4126 1 2020 2021
M  V30 4127 1 2020 4511
M  V30 4128 1 2021 2022
M  V30 4129 1 2021 2024
M  V30 4130 1 2021 4512
M  V30 4131 2 2022 2023
M  V30 4132 1 2022 2029
M  V30 4133 1 2024 2025
M  V30 4134 1 2024 4513
M  V30 4135 1 2024 4514
M  V30 4136 1 2025 2026
M  V30 4137 1 2025 4515
M  V30 4138 1 2025 4516
M  V30 4139 2 2026 2027
M  V30 4140 1 2026 2028
M  V30 4141 1 2029 2030
M  V30 4142 1 2029 4517
M  V30 4143 1 2030 2031
M  V30 4144 1 2030 2033
M  V30 4145 1 2030 4518
M  V30 4146 2 2031 2032
M  V30 4147 1 2031 2040
M  V30 4148 1 2033 2034
M  V30 4149 1 2033 4519
M  V30 4150 1 2033 4520
M  V30 4151 2 2034 2035
M  V30 4152 1 2034 2036
M  V30 4153 1 2035 2037
M  V30 4154 1 2035 4521
M  V30 4155 2 2036 2038
M  V30 4156 1 2036 4522
M  V30 4157 2 2037 2039
M  V30 4158 1 2037 4523
M  V30 4159 1 2038 2039
M  V30 4160 1 2038 4524
M  V30 4161 1 2039 4525
M  V30 4162 1 2040 2041
M  V30 4163 1 2040 4526
M  V30 4164 1 2041 2042
M  V30 4165 1 2041 2044
M  V30 4166 1 2041 4527
M  V30 4167 2 2042 2043
M  V30 4168 1 2042 2049
M  V30 4169 1 2044 2045
M  V30 4170 1 2044 4528
M  V30 4171 1 2044 4529
M  V30 4172 1 2045 2046
M  V30 4173 1 2045 4530
M  V30 4174 1 2045 4531
M  V30 4175 2 2046 2047
M  V30 4176 1 2046 2048
M  V30 4177 1 2048 4532
M  V30 4178 1 2048 4533
M  V30 4179 1 2049 2050
M  V30 4180 1 2049 4534
M  V30 4181 1 2050 2051
M  V30 4182 1 2050 2053
M  V30 4183 1 2050 4535
M  V30 4184 2 2051 2052
M  V30 4185 1 2051 2057
M  V30 4186 1 2053 2054
M  V30 4187 1 2053 4536
M  V30 4188 1 2053 4537
M  V30 4189 2 2054 2055
M  V30 4190 1 2054 2056
M  V30 4191 1 2057 2058
M  V30 4192 1 2057 4538
M  V30 4193 1 2058 2059
M  V30 4194 1 2058 2061
M  V30 4195 1 2058 4539
M  V30 4196 2 2059 2060
M  V30 4197 1 2059 2068
M  V30 4198 1 2061 2062
M  V30 4199 1 2061 4540
M  V30 4200 1 2061 4541
M  V30 4201 2 2062 2063
M  V30 4202 1 2062 2064
M  V30 4203 1 2063 2065
M  V30 4204 1 2063 4542
M  V30 4205 2 2064 2066
M  V30 4206 1 2064 4543
M  V30 4207 2 2065 2067
M  V30 4208 1 2065 4544
M  V30 4209 1 2066 2067
M  V30 4210 1 2066 4545
M  V30 4211 1 2067 4546
M  V30 4212 1 2068 2069
M  V30 4213 1 2068 4547
M  V30 4214 1 2069 2070
M  V30 4215 1 2069 2072
M  V30 4216 1 2069 4548
M  V30 4217 2 2070 2071
M  V30 4218 1 2070 2075
M  V30 4219 1 2072 2073
M  V30 4220 1 2072 2074
M  V30 4221 1 2072 4549
M  V30 4222 1 2073 4550
M  V30 4223 1 2073 4551
M  V30 4224 1 2073 4552
M  V30 4225 1 2074 4553
M  V30 4226 1 2074 4554
M  V30 4227 1 2074 4555
M  V30 4228 1 2075 2076
M  V30 4229 1 2075 4556
M  V30 4230 1 2076 2077
M  V30 4231 1 2076 2079
M  V30 4232 1 2076 4557
M  V30 4233 2 2077 2078
M  V30 4234 1 2077 2083
M  V30 4235 1 2079 2080
M  V30 4236 1 2079 4558
M  V30 4237 1 2079 4559
M  V30 4238 2 2080 2081
M  V30 4239 1 2080 2082
M  V30 4240 1 2082 4560
M  V30 4241 1 2082 4561
M  V30 4242 1 2083 2084
M  V30 4243 1 2083 4562
M  V30 4244 1 2084 2085
M  V30 4245 1 2084 2087
M  V30 4246 1 2084 4563
M  V30 4247 2 2085 2086
M  V30 4248 1 2085 2092
M  V30 4249 1 2087 2088
M  V30 4250 1 2087 4564
M  V30 4251 1 2087 4565
M  V30 4252 1 2088 2089
M  V30 4253 1 2088 4566
M  V30 4254 1 2088 4567
M  V30 4255 1 2089 2090
M  V30 4256 1 2089 4568
M  V30 4257 1 2089 4569
M  V30 4258 1 2090 2091
M  V30 4259 1 2090 4570
M  V30 4260 1 2090 4571
M  V30 4261 1 2091 4572
M  V30 4262 1 2091 4573
M  V30 4263 1 2091 4574
M  V30 4264 1 2092 2093
M  V30 4265 1 2092 4575
M  V30 4266 1 2093 2094
M  V30 4267 1 2093 2096
M  V30 4268 1 2093 4576
M  V30 4269 2 2094 2095
M  V30 4270 1 2094 2098
M  V30 4271 1 2096 2097
M  V30 4272 1 2096 4577
M  V30 4273 1 2096 4578
M  V30 4274 1 2097 4579
M  V30 4275 1 2098 2099
M  V30 4276 1 2098 4580
M  V30 4277 1 2099 2100
M  V30 4278 1 2099 2102
M  V30 4279 1 2099 4581
M  V30 4280 2 2100 2101
M  V30 4281 1 2100 2106
M  V30 4282 1 2102 2103
M  V30 4283 1 2102 4582
M  V30 4284 1 2102 4583
M  V30 4285 1 2103 2104
M  V30 4286 1 2103 2105
M  V30 4287 1 2103 4584
M  V30 4288 1 2104 4585
M  V30 4289 1 2104 4586
M  V30 4290 1 2104 4587
M  V30 4291 1 2105 4588
M  V30 4292 1 2105 4589
M  V30 4293 1 2105 4590
M  V30 4294 1 2106 2107
M  V30 4295 1 2106 4591
M  V30 4296 1 2107 2108
M  V30 4297 1 2107 2110
M  V30 4298 1 2107 4592
M  V30 4299 2 2108 2109
M  V30 4300 1 2108 2114
M  V30 4301 1 2110 2111
M  V30 4302 1 2110 2112
M  V30 4303 1 2110 4593
M  V30 4304 1 2111 2113
M  V30 4305 1 2111 4594
M  V30 4306 1 2111 4595
M  V30 4307 1 2112 4596
M  V30 4308 1 2112 4597
M  V30 4309 1 2112 4598
M  V30 4310 1 2113 4599
M  V30 4311 1 2113 4600
M  V30 4312 1 2113 4601
M  V30 4313 1 2114 2115
M  V30 4314 1 2114 4602
M  V30 4315 1 2115 2116
M  V30 4316 1 2115 2118
M  V30 4317 1 2115 4603
M  V30 4318 2 2116 2117
M  V30 4319 1 2116 2123
M  V30 4320 1 2118 2119
M  V30 4321 1 2118 4604
M  V30 4322 1 2118 4605
M  V30 4323 1 2119 2120
M  V30 4324 1 2119 4606
M  V30 4325 1 2119 4607
M  V30 4326 1 2120 2121
M  V30 4327 1 2120 4608
M  V30 4328 1 2120 4609
M  V30 4329 1 2121 2122
M  V30 4330 1 2121 4610
M  V30 4331 1 2121 4611
M  V30 4332 1 2122 4612
M  V30 4333 1 2122 4613
M  V30 4334 1 2122 4614
M  V30 4335 1 2123 2124
M  V30 4336 1 2123 4615
M  V30 4337 1 2124 2125
M  V30 4338 1 2124 2127
M  V30 4339 1 2124 4616
M  V30 4340 2 2125 2126
M  V30 4341 1 2125 2131
M  V30 4342 1 2127 2128
M  V30 4343 1 2127 4617
M  V30 4344 1 2127 4618
M  V30 4345 2 2128 2129
M  V30 4346 1 2128 2130
M  V30 4347 1 2130 4619
M  V30 4348 1 2130 4620
M  V30 4349 1 2131 2132
M  V30 4350 1 2131 2137
M  V30 4351 1 2132 2133
M  V30 4352 1 2132 2135
M  V30 4353 1 2132 4621
M  V30 4354 2 2133 2134
M  V30 4355 1 2133 2138
M  V30 4356 1 2135 2136
M  V30 4357 1 2135 4622
M  V30 4358 1 2135 4623
M  V30 4359 1 2136 2137
M  V30 4360 1 2136 4624
M  V30 4361 1 2136 4625
M  V30 4362 1 2137 4626
M  V30 4363 1 2137 4627
M  V30 4364 1 2138 2139
M  V30 4365 1 2138 4628
M  V30 4366 1 2139 2140
M  V30 4367 1 2139 2142
M  V30 4368 1 2139 4629
M  V30 4369 2 2140 2141
M  V30 4370 1 2140 2143
M  V30 4371 1 2142 4630
M  V30 4372 1 2142 4631
M  V30 4373 1 2142 4632
M  V30 4374 1 2143 2144
M  V30 4375 1 2143 4633
M  V30 4376 1 2144 2145
M  V30 4377 1 2144 2147
M  V30 4378 1 2144 4634
M  V30 4379 2 2145 2146
M  V30 4380 1 2145 2152
M  V30 4381 1 2147 2148
M  V30 4382 1 2147 4635
M  V30 4383 1 2147 4636
M  V30 4384 1 2148 2149
M  V30 4385 1 2148 4637
M  V30 4386 1 2148 4638
M  V30 4387 2 2149 2150
M  V30 4388 1 2149 2151
M  V30 4389 1 2152 2153
M  V30 4390 1 2152 4639
M  V30 4391 1 2153 2154
M  V30 4392 1 2153 2156
M  V30 4393 1 2153 4640
M  V30 4394 2 2154 2155
M  V30 4395 1 2154 2163
M  V30 4396 1 2156 2157
M  V30 4397 1 2156 4641
M  V30 4398 1 2156 4642
M  V30 4399 1 2157 2158
M  V30 4400 1 2157 4643
M  V30 4401 1 2157 4644
M  V30 4402 1 2158 2159
M  V30 4403 1 2158 4645
M  V30 4404 1 2158 4646
M  V30 4405 1 2159 2160
M  V30 4406 1 2159 4647
M  V30 4407 1 2160 2161
M  V30 4408 2 2160 2162
M  V30 4409 1 2161 4648
M  V30 4410 1 2161 4649
M  V30 4411 1 2162 4650
M  V30 4412 1 2162 4651
M  V30 4413 1 2163 2164
M  V30 4414 1 2163 4652
M  V30 4415 1 2164 2165
M  V30 4416 1 2164 2167
M  V30 4417 1 2164 4653
M  V30 4418 2 2165 2166
M  V30 4419 1 2165 2168
M  V30 4420 1 2167 4654
M  V30 4421 1 2167 4655
M  V30 4422 1 2167 4656
M  V30 4423 1 2168 2169
M  V30 4424 1 2168 4657
M  V30 4425 1 2169 2170
M  V30 4426 1 2169 2172
M  V30 4427 1 2169 4658
M  V30 4428 2 2170 2171
M  V30 4429 1 2170 2176
M  V30 4430 1 2172 2173
M  V30 4431 1 2172 4659
M  V30 4432 1 2172 4660
M  V30 4433 2 2173 2174
M  V30 4434 1 2173 2175
M  V30 4435 1 2176 2177
M  V30 4436 1 2176 4661
M  V30 4437 1 2177 2178
M  V30 4438 1 2177 2180
M  V30 4439 1 2177 4662
M  V30 4440 2 2178 2179
M  V30 4441 1 2178 2184
M  V30 4442 1 2180 2181
M  V30 4443 1 2180 4663
M  V30 4444 1 2180 4664
M  V30 4445 1 2181 2182
M  V30 4446 1 2181 2183
M  V30 4447 1 2181 4665
M  V30 4448 1 2182 4666
M  V30 4449 1 2182 4667
M  V30 4450 1 2182 4668
M  V30 4451 1 2183 4669
M  V30 4452 1 2183 4670
M  V30 4453 1 2183 4671
M  V30 4454 1 2184 2185
M  V30 4455 1 2184 4672
M  V30 4456 1 2185 2186
M  V30 4457 1 2185 2188
M  V30 4458 1 2185 4673
M  V30 4459 2 2186 2187
M  V30 4460 1 2186 2193
M  V30 4461 1 2188 2189
M  V30 4462 1 2188 4674
M  V30 4463 1 2188 4675
M  V30 4464 1 2189 2190
M  V30 4465 1 2189 4676
M  V30 4466 1 2189 4677
M  V30 4467 1 2190 2191
M  V30 4468 1 2190 4678
M  V30 4469 1 2190 4679
M  V30 4470 1 2191 2192
M  V30 4471 1 2191 4680
M  V30 4472 1 2191 4681
M  V30 4473 1 2192 4682
M  V30 4474 1 2192 4683
M  V30 4475 1 2192 4684
M  V30 4476 1 2193 2194
M  V30 4477 1 2193 4685
M  V30 4478 1 2194 2195
M  V30 4479 1 2194 2197
M  V30 4480 1 2194 4686
M  V30 4481 2 2195 2196
M  V30 4482 1 2195 2202
M  V30 4483 1 2197 2198
M  V30 4484 1 2197 4687
M  V30 4485 1 2197 4688
M  V30 4486 1 2198 2199
M  V30 4487 1 2198 4689
M  V30 4488 1 2198 4690
M  V30 4489 2 2199 2200
M  V30 4490 1 2199 2201
M  V30 4491 1 2201 4691
M  V30 4492 1 2201 4692
M  V30 4493 1 2202 2203
M  V30 4494 1 2202 4693
M  V30 4495 1 2203 2204
M  V30 4496 1 2203 2206
M  V30 4497 1 2203 4694
M  V30 4498 2 2204 2205
M  V30 4499 1 2204 2210
M  V30 4500 1 2206 2207
M  V30 4501 1 2206 4695
M  V30 4502 1 2206 4696
M  V30 4503 1 2207 2208
M  V30 4504 1 2207 2209
M  V30 4505 1 2207 4697
M  V30 4506 1 2208 4698
M  V30 4507 1 2208 4699
M  V30 4508 1 2208 4700
M  V30 4509 1 2209 4701
M  V30 4510 1 2209 4702
M  V30 4511 1 2209 4703
M  V30 4512 1 2210 2211
M  V30 4513 1 2210 4704
M  V30 4514 1 2211 2212
M  V30 4515 1 2211 2214
M  V30 4516 1 2211 4705
M  V30 4517 2 2212 2213
M  V30 4518 1 2212 2218
M  V30 4519 1 2214 2215
M  V30 4520 1 2214 4706
M  V30 4521 1 2214 4707
M  V30 4522 1 2215 2216
M  V30 4523 1 2215 4708
M  V30 4524 1 2215 4709
M  V30 4525 1 2216 2217
M  V30 4526 1 2217 4710
M  V30 4527 1 2217 4711
M  V30 4528 1 2217 4712
M  V30 4529 1 2218 2219
M  V30 4530 1 2218 4713
M  V30 4531 1 2219 2220
M  V30 4532 1 2219 2222
M  V30 4533 1 2219 4714
M  V30 4534 2 2220 2221
M  V30 4535 1 2220 2225
M  V30 4536 1 2222 2223
M  V30 4537 1 2222 2224
M  V30 4538 1 2222 4715
M  V30 4539 1 2223 4716
M  V30 4540 1 2223 4717
M  V30 4541 1 2223 4718
M  V30 4542 1 2224 4719
M  V30 4543 1 2224 4720
M  V30 4544 1 2224 4721
M  V30 4545 1 2225 2226
M  V30 4546 1 2225 4722
M  V30 4547 1 2226 2227
M  V30 4548 1 2226 2229
M  V30 4549 1 2226 4723
M  V30 4550 2 2227 2228
M  V30 4551 1 2227 2235
M  V30 4552 1 2229 2230
M  V30 4553 1 2229 4724
M  V30 4554 1 2229 4725
M  V30 4555 1 2230 2231
M  V30 4556 2 2230 2232
M  V30 4557 2 2231 2233
M  V30 4558 1 2232 2234
M  V30 4559 1 2232 4726
M  V30 4560 1 2233 2234
M  V30 4561 1 2233 4727
M  V30 4562 1 2234 4924
M  V30 4563 1 2235 2236
M  V30 4564 1 2235 4728
M  V30 4565 1 2236 2237
M  V30 4566 1 2236 2239
M  V30 4567 1 2236 4729
M  V30 4568 2 2237 2238
M  V30 4569 1 2237 2240
M  V30 4570 1 2239 4730
M  V30 4571 1 2239 4731
M  V30 4572 1 2239 4732
M  V30 4573 1 2240 2241
M  V30 4574 1 2240 4733
M  V30 4575 1 2241 2242
M  V30 4576 1 2241 2244
M  V30 4577 1 2241 4734
M  V30 4578 2 2242 2243
M  V30 4579 1 2242 2251
M  V30 4580 1 2244 2245
M  V30 4581 1 2244 4735
M  V30 4582 1 2244 4736
M  V30 4583 2 2245 2246
M  V30 4584 1 2245 2247
M  V30 4585 1 2246 2248
M  V30 4586 1 2246 4737
M  V30 4587 2 2247 2249
M  V30 4588 1 2247 4738
M  V30 4589 2 2248 2250
M  V30 4590 1 2248 4739
M  V30 4591 1 2249 2250
M  V30 4592 1 2249 4740
M  V30 4593 1 2250 4741
M  V30 4594 1 2251 2252
M  V30 4595 1 2251 4742
M  V30 4596 1 2252 2253
M  V30 4597 1 2252 2255
M  V30 4598 1 2252 4743
M  V30 4599 2 2253 2254
M  V30 4600 1 2253 2259
M  V30 4601 1 2255 2256
M  V30 4602 1 2255 2257
M  V30 4603 1 2255 4744
M  V30 4604 1 2256 2258
M  V30 4605 1 2256 4745
M  V30 4606 1 2256 4746
M  V30 4607 1 2257 4747
M  V30 4608 1 2257 4748
M  V30 4609 1 2257 4749
M  V30 4610 1 2258 4750
M  V30 4611 1 2258 4751
M  V30 4612 1 2258 4752
M  V30 4613 1 2259 2260
M  V30 4614 1 2259 4753
M  V30 4615 1 2260 2261
M  V30 4616 1 2260 2263
M  V30 4617 1 2260 4754
M  V30 4618 2 2261 2262
M  V30 4619 1 2261 2268
M  V30 4620 1 2263 2264
M  V30 4621 1 2263 4755
M  V30 4622 1 2263 4756
M  V30 4623 1 2264 2265
M  V30 4624 1 2264 4757
M  V30 4625 1 2264 4758
M  V30 4626 1 2265 2266
M  V30 4627 1 2265 4759
M  V30 4628 1 2265 4760
M  V30 4629 1 2266 2267
M  V30 4630 1 2266 4761
M  V30 4631 1 2266 4762
M  V30 4632 1 2267 4763
M  V30 4633 1 2267 4764
M  V30 4634 1 2267 4765
M  V30 4635 1 2268 2269
M  V30 4636 1 2268 4766
M  V30 4637 1 2269 2270
M  V30 4638 1 2269 2272
M  V30 4639 1 2269 4767
M  V30 4640 2 2270 2271
M  V30 4641 1 2270 2279
M  V30 4642 1 2272 2273
M  V30 4643 1 2272 4768
M  V30 4644 1 2272 4769
M  V30 4645 1 2273 2274
M  V30 4646 1 2273 4770
M  V30 4647 1 2273 4771
M  V30 4648 1 2274 2275
M  V30 4649 1 2274 4772
M  V30 4650 1 2274 4773
M  V30 4651 1 2275 2276
M  V30 4652 1 2275 4774
M  V30 4653 1 2276 2277
M  V30 4654 2 2276 2278
M  V30 4655 1 2277 4775
M  V30 4656 1 2277 4776
M  V30 4657 1 2278 4777
M  V30 4658 1 2278 4778
M  V30 4659 1 2279 2280
M  V30 4660 1 2279 4779
M  V30 4661 1 2280 2281
M  V30 4662 1 2280 2283
M  V30 4663 1 2280 4780
M  V30 4664 2 2281 2282
M  V30 4665 1 2281 2285
M  V30 4666 1 2283 2284
M  V30 4667 1 2283 4781
M  V30 4668 1 2283 4782
M  V30 4669 1 2284 4783
M  V30 4670 1 2285 2286
M  V30 4671 1 2285 4784
M  V30 4672 1 2286 2287
M  V30 4673 1 2286 2289
M  V30 4674 1 2286 4785
M  V30 4675 2 2287 2288
M  V30 4676 1 2287 2293
M  V30 4677 1 2289 2290
M  V30 4678 1 2289 4786
M  V30 4679 1 2289 4787
M  V30 4680 2 2290 2291
M  V30 4681 1 2290 2292
M  V30 4682 1 2293 2294
M  V30 4683 1 2293 4788
M  V30 4684 1 2294 2295
M  V30 4685 1 2294 2297
M  V30 4686 1 2294 4789
M  V30 4687 2 2295 2296
M  V30 4688 1 2295 2298
M  V30 4689 1 2297 4790
M  V30 4690 1 2297 4791
M  V30 4691 1 2297 4792
M  V30 4692 1 2298 2299
M  V30 4693 1 2298 4793
M  V30 4694 1 2299 2300
M  V30 4695 1 2299 2302
M  V30 4696 1 2299 4794
M  V30 4697 2 2300 2301
M  V30 4698 1 2300 2307
M  V30 4699 1 2302 2303
M  V30 4700 1 2302 4795
M  V30 4701 1 2302 4796
M  V30 4702 1 2303 2304
M  V30 4703 1 2303 4797
M  V30 4704 1 2303 4798
M  V30 4705 2 2304 2305
M  V30 4706 1 2304 2306
M  V30 4707 1 2307 2308
M  V30 4708 1 2307 4799
M  V30 4709 1 2308 2309
M  V30 4710 1 2308 2311
M  V30 4711 1 2308 4800
M  V30 4712 2 2309 2310
M  V30 4713 1 2309 2316
M  V30 4714 1 2311 2312
M  V30 4715 1 2311 4801
M  V30 4716 1 2311 4802
M  V30 4717 1 2312 2313
M  V30 4718 1 2312 4803
M  V30 4719 1 2312 4804
M  V30 4720 2 2313 2314
M  V30 4721 1 2313 2315
M  V30 4722 1 2316 2317
M  V30 4723 1 2316 4805
M  V30 4724 1 2317 2318
M  V30 4725 1 2317 2320
M  V30 4726 1 2317 4806
M  V30 4727 2 2318 2319
M  V30 4728 1 2318 2323
M  V30 4729 1 2320 2321
M  V30 4730 1 2320 2322
M  V30 4731 1 2320 4807
M  V30 4732 1 2321 4808
M  V30 4733 1 2321 4809
M  V30 4734 1 2321 4810
M  V30 4735 1 2322 4811
M  V30 4736 1 2322 4812
M  V30 4737 1 2322 4813
M  V30 4738 1 2323 2324
M  V30 4739 1 2323 4814
M  V30 4740 1 2324 2325
M  V30 4741 1 2324 2327
M  V30 4742 1 2324 4815
M  V30 4743 2 2325 2326
M  V30 4744 1 2325 2331
M  V30 4745 1 2327 2328
M  V30 4746 1 2327 4816
M  V30 4747 1 2327 4817
M  V30 4748 2 2328 2329
M  V30 4749 1 2328 2330
M  V30 4750 1 2331 2332
M  V30 4751 1 2331 4818
M  V30 4752 1 2332 2333
M  V30 4753 1 2332 2335
M  V30 4754 1 2332 4819
M  V30 4755 2 2333 2334
M  V30 4756 1 2333 2342
M  V30 4757 1 2335 2336
M  V30 4758 1 2335 4820
M  V30 4759 1 2335 4821
M  V30 4760 2 2336 2337
M  V30 4761 1 2336 2338
M  V30 4762 1 2337 2339
M  V30 4763 1 2337 4822
M  V30 4764 2 2338 2340
M  V30 4765 1 2338 4823
M  V30 4766 2 2339 2341
M  V30 4767 1 2339 4824
M  V30 4768 1 2340 2341
M  V30 4769 1 2340 4825
M  V30 4770 1 2341 4826
M  V30 4771 1 2342 2343
M  V30 4772 1 2342 4827
M  V30 4773 1 2343 2344
M  V30 4774 1 2343 2346
M  V30 4775 1 2343 4828
M  V30 4776 2 2344 2345
M  V30 4777 1 2344 2347
M  V30 4778 1 2346 4829
M  V30 4779 1 2346 4830
M  V30 4780 1 2346 4831
M  V30 4781 1 2347 2348
M  V30 4782 1 2347 4832
M  V30 4783 1 2348 2349
M  V30 4784 1 2348 4833
M  V30 4785 1 2348 4834
M  V30 4786 2 2349 2350
M  V30 4787 1 2349 2351
M  V30 4788 1 2351 2352
M  V30 4789 1 2351 4835
M  V30 4790 1 2352 2353
M  V30 4791 1 2352 2355
M  V30 4792 1 2352 4836
M  V30 4793 2 2353 2354
M  V30 4794 1 2353 2365
M  V30 4795 1 2355 2356
M  V30 4796 1 2355 4837
M  V30 4797 1 2355 4838
M  V30 4798 2 2356 2357
M  V30 4799 1 2356 2358
M  V30 4800 1 2357 2359
M  V30 4801 1 2357 4839
M  V30 4802 2 2358 2360
M  V30 4803 1 2358 2361
M  V30 4804 1 2359 2360
M  V30 4805 1 2359 4840
M  V30 4806 1 2360 2362
M  V30 4807 2 2361 2363
M  V30 4808 1 2361 4841
M  V30 4809 2 2362 2364
M  V30 4810 1 2362 4842
M  V30 4811 1 2363 2364
M  V30 4812 1 2363 4843
M  V30 4813 1 2364 4844
M  V30 4814 1 2365 2366
M  V30 4815 1 2365 4845
M  V30 4816 1 2366 2367
M  V30 4817 1 2366 2369
M  V30 4818 1 2366 4846
M  V30 4819 2 2367 2368
M  V30 4820 1 2367 2373
M  V30 4821 1 2369 2370
M  V30 4822 1 2369 4847
M  V30 4823 1 2369 4848
M  V30 4824 1 2370 2371
M  V30 4825 1 2370 2372
M  V30 4826 1 2370 4849
M  V30 4827 1 2371 4850
M  V30 4828 1 2371 4851
M  V30 4829 1 2371 4852
M  V30 4830 1 2372 4853
M  V30 4831 1 2372 4854
M  V30 4832 1 2372 4855
M  V30 4833 1 2373 2374
M  V30 4834 1 2373 4856
M  V30 4835 1 2374 2375
M  V30 4836 1 2374 2377
M  V30 4837 1 2374 4857
M  V30 4838 2 2375 2376
M  V30 4839 1 2375 2379
M  V30 4840 1 2377 2378
M  V30 4841 1 2377 4858
M  V30 4842 1 2377 4859
M  V30 4843 1 2378 4860
M  V30 4844 1 2379 2380
M  V30 4845 1 2379 4861
M  V30 4846 1 2380 2381
M  V30 4847 1 2380 2383
M  V30 4848 1 2380 4862
M  V30 4849 2 2381 2382
M  V30 4850 1 2381 2385
M  V30 4851 1 2383 2384
M  V30 4852 1 2383 4863
M  V30 4853 1 2383 4864
M  V30 4854 1 2384 4865
M  V30 4855 1 2385 2386
M  V30 4856 1 2385 4866
M  V30 4857 1 2386 2387
M  V30 4858 1 2386 2389
M  V30 4859 1 2386 4867
M  V30 4860 2 2387 2388
M  V30 4861 1 2387 2392
M  V30 4862 1 2389 2390
M  V30 4863 1 2389 2391
M  V30 4864 1 2389 4868
M  V30 4865 1 2390 4869
M  V30 4866 1 2391 4870
M  V30 4867 1 2391 4871
M  V30 4868 1 2391 4872
M  V30 4869 1 2392 2393
M  V30 4870 1 2392 4873
M  V30 4871 1 2393 2394
M  V30 4872 1 2393 2396
M  V30 4873 1 2393 4874
M  V30 4874 2 2394 2395
M  V30 4875 1 2394 2400
M  V30 4876 1 2396 2397
M  V30 4877 1 2396 2398
M  V30 4878 1 2396 4875
M  V30 4879 1 2397 2399
M  V30 4880 1 2397 4876
M  V30 4881 1 2397 4877
M  V30 4882 1 2398 4878
M  V30 4883 1 2398 4879
M  V30 4884 1 2398 4880
M  V30 4885 1 2399 4881
M  V30 4886 1 2399 4882
M  V30 4887 1 2399 4883
M  V30 4888 1 2400 2401
M  V30 4889 1 2400 4884
M  V30 4890 1 2401 2402
M  V30 4891 1 2401 4885
M  V30 4892 1 2401 4886
M  V30 4893 2 2402 2403
M  V30 4894 1 2402 2404
M  V30 4895 1 2404 2405
M  V30 4896 1 2404 4887
M  V30 4897 1 2405 2406
M  V30 4898 1 2405 2408
M  V30 4899 1 2405 4888
M  V30 4900 2 2406 2407
M  V30 4901 1 2406 2412
M  V30 4902 1 2408 2409
M  V30 4903 1 2408 4889
M  V30 4904 1 2408 4890
M  V30 4905 1 2409 2410
M  V30 4906 1 2409 2411
M  V30 4907 1 2409 4891
M  V30 4908 1 2410 4892
M  V30 4909 1 2410 4893
M  V30 4910 1 2410 4894
M  V30 4911 1 2411 4895
M  V30 4912 1 2411 4896
M  V30 4913 1 2411 4897
M  V30 4914 1 2412 2413
M  V30 4915 1 2412 4898
M  V30 4916 1 2413 2414
M  V30 4917 1 2413 2416
M  V30 4918 1 2413 4899
M  V30 4919 2 2414 2415
M  V30 4920 1 2414 4900
M  V30 4921 1 2416 2417
M  V30 4922 1 2416 4901
M  V30 4923 1 2416 4902
M  V30 4924 2 2417 2418
M  V30 4925 1 2417 2419
M  V30 4926 1 2419 4903
M  V30 4927 1 2419 4904
M  V30 4928 1 2420 2421
M  V30 4929 1 2420 2422
M  V30 4930 2 2420 2423
M  V30 4931 1 2420 2427
M  V30 4932 1 2424 2425
M  V30 4933 2 2424 2426
M  V30 4934 1 2424 2427
M  V30 4935 1 2424 2431
M  V30 4936 1 2427 4905
M  V30 4937 1 2428 2429
M  V30 4938 2 2428 2430
M  V30 4939 1 2428 2431
M  V30 4940 1 2428 2432
M  V30 4941 1 2432 2433
M  V30 4942 1 2433 2434
M  V30 4943 1 2433 4906
M  V30 4944 1 2433 4907
M  V30 4945 1 2434 2435
M  V30 4946 1 2434 2436
M  V30 4947 1 2434 4908
M  V30 4948 1 2435 2440
M  V30 4949 1 2436 2437
M  V30 4950 1 2436 2438
M  V30 4951 1 2436 4909
M  V30 4952 1 2437 4910
M  V30 4953 1 2438 2439
M  V30 4954 1 2438 2440
M  V30 4955 1 2438 4911
M  V30 4956 1 2439 4912
M  V30 4957 1 2440 2441
M  V30 4958 1 2440 4913
M  V30 4959 1 2441 2442
M  V30 4960 1 2441 2450
M  V30 4961 2 2442 2443
M  V30 4962 1 2442 4914
M  V30 4963 1 2443 2444
M  V30 4964 1 2444 2445
M  V30 4965 2 2444 2450
M  V30 4966 1 2445 2446
M  V30 4967 2 2445 2447
M  V30 4968 1 2446 4915
M  V30 4969 1 2446 4916
M  V30 4970 1 2447 2448
M  V30 4971 2 2448 2449
M  V30 4972 1 2448 4917
M  V30 4973 1 2449 2450
M  V30 END BOND
M  V30 END CTAB
M  END
> <s_m_entry_id>
47

> <s_m_entry_name>
7m0y.1

> <s_pdb_PDB_TITLE>
CRYSTAL STRUCTURE OF THE BRAF:MEK1 KINASES IN COMPLEX WITH AMPPNP AND TRAMETINIB

> <s_pdb_PDB_ID>
7M0Y

> <r_pdb_PDB_CRYST1_a>
116.716

> <r_pdb_PDB_CRYST1_b>
116.716

> <r_pdb_PDB_CRYST1_c>
129.483

> <r_pdb_PDB_CRYST1_alpha>
90

> <r_pdb_PDB_CRYST1_beta>
90

> <r_pdb_PDB_CRYST1_gamma>
120

> <s_pdb_PDB_CRYST1_Space_Group>
P 31 2 1

> <i_pdb_PDB_CRYST1_z>
6

> <s_pdb_PDB_CLASSIFICATION>
TRANSFERASE

> <s_pdb_PDB_DEPOSITION_DATE>
11-MAR-21

> <s_pdb_PDB_format_version>
3.30

> <r_pdb_PDB_R>
0.194999992847443

> <r_pdb_PDB_Rfree>
0.217999994754791

> <r_pdb_PDB_RESOLUTION>
3.45

> <s_pdb_PDB_EXPDTA>
X-RAY DIFFRACTION

> <r_pdb_PDB_EXPDTA_TEMPERATURE>
100

> <r_pdb_PDB_EXPDTA_PH>
8.5

> <s_pdb_PDB_REMARK_350_Biomolecule_1_Chains>
A, B

> <s_pdb_PDB_REMARK_350_Biomolecule_1_Transformation_1>
1.000000 0.000000 0.000000   0.000000;0.000000 1.000000 0.000000   0.000000;0.000000 0.000000 1.000000   0.000000

> <s_m_Source_Path>
D:\Research\Benchmark_Tarpass\Targets\MEK1

> <s_m_Source_File>
7m0y.pdb

> <i_m_Source_File_Index>
1

> <s_ppw_entry_id_backup>
44

> <b_ppw_prepared>
1

> <s_ppw_prepared_with_version>
2018-1

> <b_ppw_assigned_bond_orders>
1

> <b_ppw_added_hydrogens>
1

> <b_ppw_treated_metals>
1

> <b_ppw_created_disulfur>
1

> <b_ppw_deleted_far_waters>
1

> <b_ppw_ran_protassign>
1

> <b_ppw_removed_non_hbond_waters>
1

> <i_glide_grid_version>
78011

> <r_glide_gridbox_xcent>
62.9823335323

> <r_glide_gridbox_ycent>
-22.4794757903

> <r_glide_gridbox_zcent>
4.79556917742

> <r_glide_gridbox_xrange>
30

> <r_glide_gridbox_yrange>
30

> <r_glide_gridbox_zrange>
30

> <r_glide_gridbox_ligxrange>
10

> <r_glide_gridbox_ligyrange>
10

> <r_glide_gridbox_ligzrange>
10

> <b_glide_receptor>
1

> <s_m_job_name>
MEK1-dock_SP_1

> <s_m_subgroupid>
MEK1-dock_SP_1_pv1

> <s_m_subgroup_title>
MEK1-dock_SP_1_pv1

> <b_m_subgroup_collapsed>
0

$$$$
QOM
                    3D
 Structure written by MMmdl.
  0  0  0     0  0            999 V3000
M  V30 BEGIN CTAB
M  V30 COUNTS 62 66 0 0 0
M  V30 BEGIN ATOM
M  V30 1 C  57.8431 -23.9836 4.6080 0
M  V30 2 C  59.7100 -24.2503 6.1188 0
M  V30 3 C  60.2227 -16.9834 4.2037 0
M  V30 4 C  57.0423 -15.5583 2.8110 0
M  V30 5 C  57.4433 -13.8710 1.1312 0
M  V30 6 C  58.1376 -16.6319 6.8996 0
M  V30 7 C  57.1727 -17.0967 5.7821 0 CFG=1
M  V30 8 C  57.8845 -17.7312 4.5370 0 CFG=2
M  V30 9 C  58.4819 -19.0716 4.9915 0
M  V30 10 C  57.8059 -19.7745 5.9436 0
M  V30 11 C  56.1534 -18.0834 6.4289 0
M  V30 12 C  55.6502 -20.3195 7.1708 0
M  V30 13 C  58.4648 -22.1745 6.0809 0
M  V30 14 C  57.6162 -22.7028 5.0977 0
M  V30 15 C  58.8869 -24.7550 5.1156 0
M  V30 16 C  59.4979 -22.9599 6.5979 0
M  V30 17 C  59.8221 -19.3925 4.5239 0
M  V30 18 C  58.4206 -15.8209 2.9472 0
M  V30 19 C  56.5618 -14.5972 1.9221 0
M  V30 20 C  58.8129 -14.1028 1.2262 0
M  V30 21 C  59.2891 -15.0799 2.1100 0
M  V30 22 C  60.8458 -12.8311 0.6693 0
M  V30 23 C  61.5875 -12.1620 -0.4820 0
M  V30 24 C  62.0782 -18.5598 4.3955 0
M  V30 25 C  63.0411 -17.8354 5.3237 0
M  V30 26 C  62.7576 -19.2916 5.5513 0
M  V30 27 F  56.5771 -21.9941 4.5962 0
M  V30 28 I  59.1872 -26.6794 4.3774 0
M  V30 29 N  56.5873 -19.3873 6.4907 0
M  V30 30 N  58.3114 -20.8839 6.5956 0
M  V30 31 N  60.6180 -18.2820 4.4435 0
M  V30 32 N  58.8946 -16.8455 3.8514 0
M  V30 33 N  59.6579 -13.3901 0.3621 0
M  V30 34 O  55.0788 -17.6646 6.8697 0
M  V30 35 O  60.1936 -20.5356 4.2397 0
M  V30 36 O  61.0163 -16.0345 4.1948 0
M  V30 37 O  61.3476 -12.8108 1.7951 0
M  V30 38 H  57.1944 -24.3826 3.8440 0
M  V30 39 H  60.5016 -24.8531 6.5370 0
M  V30 40 H  56.2942 -16.0981 3.3661 0
M  V30 41 H  57.0539 -13.1365 0.4400 0
M  V30 42 H  57.6163 -16.2833 7.7925 0
M  V30 43 H  58.7818 -15.8196 6.5608 0
M  V30 44 H  58.7819 -17.4450 7.2167 0
M  V30 45 H  56.5834 -16.2403 5.4673 0
M  V30 46 H  57.1429 -18.0045 3.7857 0
M  V30 47 H  55.9778 -20.5281 8.1905 0
M  V30 48 H  55.6220 -21.2814 6.6591 0
M  V30 49 H  54.6177 -19.9729 7.2153 0
M  V30 50 H  60.1262 -22.5758 7.3906 0
M  V30 51 H  55.4990 -14.4244 1.8404 0
M  V30 52 H  60.3490 -15.2726 2.0941 0
M  V30 53 H  61.0817 -12.3188 -1.4368 0
M  V30 54 H  62.5963 -12.5702 -0.5631 0
M  V30 55 H  61.6638 -11.0883 -0.3049 0
M  V30 56 H  62.4342 -18.8029 3.3964 0
M  V30 57 H  63.9822 -17.5061 4.8965 0
M  V30 58 H  62.6654 -17.1050 6.0394 0
M  V30 59 H  62.1685 -19.5778 6.4252 0
M  V30 60 H  63.5385 -20.0190 5.3291 0
M  V30 61 H  58.8666 -20.7170 7.4375 0
M  V30 62 H  59.3102 -13.2637 -0.5780 0
M  V30 END ATOM
M  V30 BEGIN BOND
M  V30 1 1 1 14
M  V30 2 2 1 15
M  V30 3 1 1 38
M  V30 4 1 2 15
M  V30 5 2 2 16
M  V30 6 1 2 39
M  V30 7 1 3 31
M  V30 8 1 3 32
M  V30 9 2 3 36
M  V30 10 1 4 18
M  V30 11 2 4 19
M  V30 12 1 4 40
M  V30 13 1 5 19
M  V30 14 2 5 20
M  V30 15 1 5 41
M  V30 16 1 6 7
M  V30 17 1 6 42
M  V30 18 1 6 43
M  V30 19 1 6 44
M  V30 20 1 7 8
M  V30 21 1 7 11
M  V30 22 1 7 45
M  V30 23 1 8 9
M  V30 24 1 8 32
M  V30 25 1 8 46
M  V30 26 2 9 10
M  V30 27 1 9 17
M  V30 28 1 10 29
M  V30 29 1 10 30
M  V30 30 1 11 29
M  V30 31 2 11 34
M  V30 32 1 12 29
M  V30 33 1 12 47
M  V30 34 1 12 48
M  V30 35 1 12 49
M  V30 36 2 13 14
M  V30 37 1 13 16
M  V30 38 1 13 30
M  V30 39 1 14 27
M  V30 40 1 15 28
M  V30 41 1 16 50
M  V30 42 1 17 31
M  V30 43 2 17 35
M  V30 44 2 18 21
M  V30 45 1 18 32
M  V30 46 1 19 51
M  V30 47 1 20 21
M  V30 48 1 20 33
M  V30 49 1 21 52
M  V30 50 1 22 23
M  V30 51 1 22 33
M  V30 52 2 22 37
M  V30 53 1 23 53
M  V30 54 1 23 54
M  V30 55 1 23 55
M  V30 56 1 24 25
M  V30 57 1 24 26
M  V30 58 1 24 31
M  V30 59 1 24 56
M  V30 60 1 25 26
M  V30 61 1 25 57
M  V30 62 1 25 58
M  V30 63 1 26 59
M  V30 64 1 26 60
M  V30 65 1 30 61
M  V30 66 1 33 62
M  V30 END BOND
M  V30 END CTAB
M  END
> <i_m_stars>
0

> <s_m_entry_id>
48

> <s_m_entry_name>
Structure46

> <s_pdb_PDB_TITLE>
CRYSTAL STRUCTURE OF THE BRAF:MEK1 KINASES IN COMPLEX WITH AMPPNP AND TRAMETINIB

> <s_pdb_PDB_ID>
7M0Y

> <r_pdb_PDB_CRYST1_a>
116.716

> <r_pdb_PDB_CRYST1_b>
116.716

> <r_pdb_PDB_CRYST1_c>
129.483

> <r_pdb_PDB_CRYST1_alpha>
90

> <r_pdb_PDB_CRYST1_beta>
90

> <r_pdb_PDB_CRYST1_gamma>
120

> <s_pdb_PDB_CRYST1_Space_Group>
P 31 2 1

> <i_pdb_PDB_CRYST1_z>
6

> <s_pdb_PDB_CLASSIFICATION>
TRANSFERASE

> <s_pdb_PDB_DEPOSITION_DATE>
11-MAR-21

> <s_pdb_PDB_format_version>
3.30

> <r_pdb_PDB_R>
0.194999992847443

> <r_pdb_PDB_Rfree>
0.217999994754791

> <r_pdb_PDB_RESOLUTION>
3.45

> <s_pdb_PDB_EXPDTA>
X-RAY DIFFRACTION

> <r_pdb_PDB_EXPDTA_TEMPERATURE>
100

> <r_pdb_PDB_EXPDTA_PH>
8.5

> <s_pdb_PDB_REMARK_350_Biomolecule_1_Chains>
A, B

> <s_pdb_PDB_REMARK_350_Biomolecule_1_Transformation_1>
1.000000 0.000000 0.000000   0.000000;0.000000 1.000000 0.000000   0.000000;0.000000 0.000000 1.000000   0.000000

> <s_m_Source_Path>
D:\Research\Benchmark_Tarpass\Targets\MEK1

> <s_m_Source_File>
7m0y.pdb

> <i_m_Source_File_Index>
1

> <s_ppw_entry_id_backup>
44

> <b_ppw_prepared>
1

> <s_ppw_prepared_with_version>
2018-1

> <b_ppw_assigned_bond_orders>
1

> <b_ppw_added_hydrogens>
1

> <b_ppw_treated_metals>
1

> <b_ppw_created_disulfur>
1

> <b_ppw_deleted_far_waters>
1

> <b_ppw_ran_protassign>
1

> <b_ppw_removed_non_hbond_waters>
1

> <s_m_job_name>
MEK1-dock_SP_1

> <s_i_glide_gridfile>
MEK1-grid_1

> <i_i_glide_lignum>
1

> <i_i_glide_rotatable_bonds>
6

> <r_i_docking_score>
-4.44505736716182

> <r_i_glide_ligand_efficiency>
-0.120136685598968

> <r_i_glide_ligand_efficiency_sa>
-0.400322088455358

> <r_i_glide_ligand_efficiency_ln>
-0.964028736007732

> <r_i_glide_gscore>
-4.44505736716182

> <r_i_glide_lipo>
-0.486519568390092

> <r_i_glide_hbond>
-0.276721609407927

> <r_i_glide_metal>
0

> <r_i_glide_rewards>
0

> <r_i_glide_evdw>
-40.9843864440918

> <r_i_glide_ecoul>
-9.63189792633057

> <r_i_glide_erotb>
0.146677223366377

> <r_i_glide_esite>
-0.334489401576007

> <r_i_glide_emodel>
-58.8380596263869

> <r_i_glide_energy>
-50.6162843704224

> <r_i_glide_einternal>
8.84615898132324

> <i_i_glide_confnum>
100

> <i_i_glide_posenum>
120

> <r_i_glide_eff_state_penalty>
0

> <s_m_subgroupid>
MEK1-dock_SP_1_pv1

> <s_m_subgroup_title>
MEK1-dock_SP_1_pv1

> <b_m_subgroup_collapsed>
0

$$$$
