QOM
                    3D
 Structure written by MMmdl.
 62 66  0  0  1  0            999 V2000
   68.0010  -26.8380    8.0120 C   0  0  0  0  0  0
   68.2420  -24.4670    7.9720 C   0  0  0  0  0  0
   61.1060  -22.5980    5.3050 C   0  0  0  0  0  0
   61.9560  -19.6050    4.7270 C   0  0  0  0  0  0
   60.6720  -18.0150    3.5260 C   0  0  0  0  0  0
   64.4140  -20.6480    2.7380 C   0  0  0  0  0  0
   64.3730  -21.8840    3.6120 C   0  0  1  0  0  0
   63.2910  -22.4560    4.3990 C   0  0  2  0  0  0
   63.6320  -23.6280    5.0510 C   0  0  0  0  0  0
   64.9690  -24.2180    4.9530 C   0  0  0  0  0  0
   65.5860  -22.5000    3.5790 C   0  0  0  0  0  0
   67.2440  -23.9760    3.9310 C   0  0  0  0  0  0
   66.4690  -25.5440    6.6700 C   0  0  0  0  0  0
   66.9110  -26.7680    7.1320 C   0  0  0  0  0  0
   68.6620  -25.6910    8.4370 C   0  0  0  0  0  0
   67.1590  -24.4140    7.1100 C   0  0  0  0  0  0
   62.6440  -24.2530    5.8320 C   0  0  0  0  0  0
   61.4250  -20.6830    4.0020 C   0  0  0  0  0  0
   61.6250  -18.2800    4.4900 C   0  0  0  0  0  0
   60.0870  -19.0690    2.8180 C   0  0  0  0  0  0
   60.4450  -20.4110    3.0430 C   0  0  0  0  0  0
   57.7170  -18.3910    2.2380 C   0  0  0  0  0  0
   56.6630  -18.0060    1.1870 C   0  0  0  0  0  0
   60.4440  -24.3970    6.7150 C   0  0  0  0  0  0
   59.0360  -24.7820    6.1460 C   0  0  0  0  0  0
   60.0080  -25.8650    6.3710 C   0  0  0  0  0  0
   66.2680  -27.8890    6.7150 F   0  0  0  0  0  0
   70.3000  -25.7420    9.7420 I   0  0  0  0  0  0
   65.8700  -23.5960    4.1950 N   0  0  0  0  0  0
   65.3280  -25.4710    5.6870 N   0  0  0  0  0  0
   61.4450  -23.7180    5.9300 N   0  0  0  0  0  0
   61.9720  -21.9600    4.5100 N   0  0  0  0  0  0
   59.0800  -18.7080    1.8110 N   0  0  0  0  0  0
   66.5920  -21.9330    2.8110 O   0  0  0  0  0  0
   62.8700  -25.4260    6.5330 O   0  0  0  0  0  0
   60.0010  -22.2150    5.4650 O   0  0  0  0  0  0
   57.4140  -18.4370    3.3830 O   0  0  0  0  0  0
   68.3426  -27.7967    8.3733 H   0  0  0  0  0  0
   68.7546  -23.5676    8.2796 H   0  0  0  0  0  0
   62.6654  -19.7855    5.5211 H   0  0  0  0  0  0
   60.3805  -16.9956    3.3208 H   0  0  0  0  0  0
   65.4088  -20.5410    2.3056 H   0  0  0  0  0  0
   63.6792  -20.7432    1.9385 H   0  0  0  0  0  0
   64.1835  -19.7690    3.3399 H   0  0  0  0  0  0
   64.6913  -21.2930    4.4707 H   0  0  0  0  0  0
   63.5966  -21.8707    5.2663 H   0  0  0  0  0  0
   67.7027  -23.2440    3.2663 H   0  0  0  0  0  0
   67.7982  -24.0118    4.8689 H   0  0  0  0  0  0
   67.2656  -24.9583    3.4591 H   0  0  0  0  0  0
   66.8075  -23.4612    6.7424 H   0  0  0  0  0  0
   62.1080  -17.4940    5.0516 H   0  0  0  0  0  0
   59.9840  -21.2210    2.4973 H   0  0  0  0  0  0
   55.7127  -17.8049    1.6815 H   0  0  0  0  0  0
   56.9903  -17.1137    0.6534 H   0  0  0  0  0  0
   56.5377  -18.8261    0.4800 H   0  0  0  0  0  0
   60.4590  -24.1613    7.7791 H   0  0  0  0  0  0
   59.2057  -24.5959    5.0855 H   0  0  0  0  0  0
   58.4693  -24.8434    7.0751 H   0  0  0  0  0  0
   59.6879  -26.1996    7.3578 H   0  0  0  0  0  0
   60.4245  -25.9519    5.3675 H   0  0  0  0  0  0
   64.7970  -26.3162    5.5331 H   0  0  0  0  0  0
   59.3311  -18.6802    0.8331 H   0  0  0  0  0  0
  1 14  1  0  0  0
  1 15  2  0  0  0
  1 38  1  0  0  0
  2 15  1  0  0  0
  2 16  2  0  0  0
  2 39  1  0  0  0
  3 31  1  0  0  0
  3 32  1  0  0  0
  3 36  2  0  0  0
  4 18  1  0  0  0
  4 19  2  0  0  0
  4 40  1  0  0  0
  5 19  1  0  0  0
  5 20  2  0  0  0
  5 41  1  0  0  0
  6  7  1  0  0  0
  6 42  1  0  0  0
  6 43  1  0  0  0
  6 44  1  0  0  0
  7  8  1  0  0  0
  7 11  1  0  0  0
  7 45  1  0  0  0
  8  9  1  0  0  0
  8 32  1  0  0  0
  8 46  1  0  0  0
  9 10  2  0  0  0
  9 17  1  0  0  0
 10 29  1  0  0  0
 10 30  1  0  0  0
 11 29  1  0  0  0
 11 34  2  0  0  0
 12 29  1  0  0  0
 12 47  1  0  0  0
 12 48  1  0  0  0
 12 49  1  0  0  0
 13 14  2  0  0  0
 13 16  1  0  0  0
 13 30  1  0  0  0
 14 27  1  0  0  0
 15 28  1  0  0  0
 16 50  1  0  0  0
 17 31  1  0  0  0
 17 35  2  0  0  0
 18 21  2  0  0  0
 18 32  1  0  0  0
 19 51  1  0  0  0
 20 21  1  0  0  0
 20 33  1  0  0  0
 21 52  1  0  0  0
 22 23  1  0  0  0
 22 33  1  0  0  0
 22 37  2  0  0  0
 23 53  1  0  0  0
 23 54  1  0  0  0
 23 55  1  0  0  0
 24 25  1  0  0  0
 24 26  1  0  0  0
 24 31  1  0  0  0
 24 56  1  0  0  0
 25 26  1  0  0  0
 25 57  1  0  0  0
 25 58  1  0  0  0
 26 59  1  0  0  0
 26 60  1  0  0  0
 30 61  1  0  0  0
 33 62  1  0  0  0
M  END
> <i_m_stars>
0

> <s_m_entry_id>
3

> <s_m_entry_name>
Structure3

> <s_pdb_PDB_TITLE>
CRYSTAL STRUCTURE OF THE BRAF:MEK1 KINASES IN COMPLEX WITH AMPPNP AND TRAMETINIB

> <s_pdb_PDB_ID>
7M0Y

> <r_pdb_PDB_CRYST1_a>
116.716

> <r_pdb_PDB_CRYST1_b>
116.716

> <r_pdb_PDB_CRYST1_c>
129.483

> <r_pdb_PDB_CRYST1_alpha>
90

> <r_pdb_PDB_CRYST1_beta>
90

> <r_pdb_PDB_CRYST1_gamma>
120

> <s_pdb_PDB_CRYST1_Space_Group>
P 31 2 1

> <i_pdb_PDB_CRYST1_z>
6

> <s_pdb_PDB_CLASSIFICATION>
TRANSFERASE

> <s_pdb_PDB_DEPOSITION_DATE>
11-MAR-21

> <s_pdb_PDB_format_version>
3.30

> <r_pdb_PDB_R>
0.194999992847443

> <r_pdb_PDB_Rfree>
0.217999994754791

> <r_pdb_PDB_RESOLUTION>
3.45

> <s_pdb_PDB_EXPDTA>
X-RAY DIFFRACTION

> <r_pdb_PDB_EXPDTA_TEMPERATURE>
100

> <r_pdb_PDB_EXPDTA_PH>
8.5

> <s_pdb_PDB_REMARK_350_Biomolecule_1_Chains>
A, B

> <s_pdb_PDB_REMARK_350_Biomolecule_1_Transformation_1>
1.000000 0.000000 0.000000   0.000000;0.000000 1.000000 0.000000   0.000000;0.000000 0.000000 1.000000   0.000000

> <s_m_Source_Path>
D:\Research\Benchmark_Tarpass\Targets\MEK1

> <s_m_Source_File>
7m0y.pdb

> <i_m_Source_File_Index>
1

> <s_ppw_entry_id_backup>
1

> <b_ppw_prepared>
1

> <s_ppw_prepared_with_version>
2018-1

> <b_ppw_assigned_bond_orders>
1

> <b_ppw_added_hydrogens>
1

> <b_ppw_treated_metals>
1

> <b_ppw_created_disulfur>
1

> <b_ppw_deleted_far_waters>
1

$$$$
