I0ZA 4000
                    3D
 Structure written by MMmdl.
 76 80  0  0  1  0            999 V2000
   13.7660    1.5030    5.2750 N   0  0  0  0  0  0
   14.1880    0.2700   11.9090 N   0  0  0  0  0  0
   14.9050    4.2900    3.1240 C   0  0  0  0  0  0
   14.8320    3.5740    4.4760 C   0  0  1  0  0  0
   14.6510    4.6060    5.5960 C   0  0  0  0  0  0
   15.7270    5.6830    5.5070 C   0  0  0  0  0  0
   13.6820    2.5850    4.4740 C   0  0  0  0  0  0
   12.2710    0.0380    6.5960 C   0  0  0  0  0  0
   15.5780    0.7020    8.5370 C   0  0  0  0  0  0
   14.8110   -0.9570   11.6820 C   0  0  0  0  0  0
   15.5900   -3.1900   12.0410 C   0  0  0  0  0  0
   15.4410   -0.9610   10.4430 C   0  0  0  0  0  0
   13.9800    2.3790   10.7640 C   0  0  0  0  0  0
   14.6940    3.4040   10.0680 C   0  0  0  0  0  0
   15.0150    5.7650    9.3060 C   0  0  0  0  0  0
   11.1440    4.3800   12.0720 C   0  0  0  0  0  0
   14.8850    1.2110    6.1720 C   0  0  0  0  0  0
   12.4850    6.1410   10.5460 O   0  0  0  0  0  0
   13.0120    5.0380   10.6440 C   0  0  0  0  0  0
   14.2540    4.6780    9.9970 C   0  0  0  0  0  0
   12.3650    4.0200   11.3530 N   0  0  0  0  0  0
   12.8360    2.7390   11.3970 C   0  0  0  0  0  0
   14.4470    0.9820   10.8290 C   0  0  0  0  0  0
   16.1590   -2.0560    9.9820 C   0  0  0  0  0  0
   16.2290   -3.1720   10.8060 C   0  0  0  0  0  0
   14.8770   -2.0890   12.4930 C   0  0  0  0  0  0
   15.1800    0.2910    9.8890 N   0  0  0  0  0  0
   14.4260    0.9070    7.5910 C   0  0  1  0  0  0
   13.4210   -0.2390    7.5580 C   0  0  0  0  0  0
   12.7830    0.4130    5.2180 C   0  0  0  0  0  0
   12.7180    2.7640    3.7540 O   0  0  0  0  0  0
   15.9810    5.3630    3.1500 C   0  0  0  0  0  0
   15.7090    6.3560    4.1990 N   0  3  2  0  0  0
   16.5280    7.5790    4.0780 C   0  0  0  0  0  0
   17.9540    7.3750    4.5660 C   0  0  0  0  0  0
   15.8570    8.7870    4.7100 C   0  0  0  0  0  0
   13.9408    4.7480    2.9033 H   0  0  0  0  0  0
   15.1331    3.5661    2.3417 H   0  0  0  0  0  0
   15.7638    3.0329    4.6406 H   0  0  0  0  0  0
   14.7157    4.1073    6.5631 H   0  0  0  0  0  0
   13.6674    5.0675    5.5089 H   0  0  0  0  0  0
   16.7059    5.2320    5.6695 H   0  0  0  0  0  0
   15.5699    6.4188    6.2957 H   0  0  0  0  0  0
   11.6573    0.8490    6.9881 H   0  0  0  0  0  0
   11.6402   -0.8477    6.5200 H   0  0  0  0  0  0
   16.2602   -0.0390    8.1203 H   0  0  0  0  0  0
   16.1645    1.6189    8.5961 H   0  0  0  0  0  0
   15.6443   -4.0703   12.6643 H   0  0  0  0  0  0
   15.6249    3.1721    9.5720 H   0  0  0  0  0  0
   14.4617    6.7011    9.3814 H   0  0  0  0  0  0
   15.9912    5.8816    9.7767 H   0  0  0  0  0  0
   15.1474    5.5054    8.2557 H   0  0  0  0  0  0
   10.7462    3.4998   12.5770 H   0  0  0  0  0  0
   11.3697    5.1503   12.8094 H   0  0  0  0  0  0
   10.4045    4.7587   11.3664 H   0  0  0  0  0  0
   15.5689    2.0596    6.1863 H   0  0  0  0  0  0
   15.4487    0.3627    5.7839 H   0  0  0  0  0  0
   12.2728    2.0046   11.9537 H   0  0  0  0  0  0
   16.6377   -2.0194    9.0146 H   0  0  0  0  0  0
   16.7897   -4.0339   10.4755 H   0  0  0  0  0  0
   14.3791   -2.0965   13.4514 H   0  0  0  0  0  0
   13.8862    1.7870    7.9409 H   0  0  0  0  0  0
   13.9280   -1.1574    7.2621 H   0  0  0  0  0  0
   13.0242   -0.4022    8.5600 H   0  0  0  0  0  0
   13.2369   -0.4604    4.7498 H   0  0  0  0  0  0
   11.9449    0.7132    4.5891 H   0  0  0  0  0  0
   16.0209    5.8605    2.1810 H   0  0  0  0  0  0
   16.9509    4.8999    3.3314 H   0  0  0  0  0  0
   14.7537    6.6509    4.0559 H   0  0  0  0  0  0
   16.5990    7.7935    3.0117 H   0  0  0  0  0  0
   18.5129    8.3042    4.4551 H   0  0  0  0  0  0
   17.9409    7.0825    5.6160 H   0  0  0  0  0  0
   18.4315    6.5919    3.9772 H   0  0  0  0  0  0
   16.4982    9.6609    4.5951 H   0  0  0  0  0  0
   14.9015    8.9709    4.2188 H   0  0  0  0  0  0
   15.6893    8.5969    5.7701 H   0  0  0  0  0  0
  1  7  1  0  0  0
  1 17  1  0  0  0
  1 30  1  0  0  0
  2 10  1  0  0  0
  2 23  2  0  0  0
  3  4  1  0  0  0
  3 32  1  0  0  0
  3 37  1  0  0  0
  3 38  1  0  0  0
  4  5  1  0  0  0
  4  7  1  0  0  0
  4 39  1  0  0  0
  5  6  1  0  0  0
  5 40  1  0  0  0
  5 41  1  0  0  0
  6 33  1  0  0  0
  6 42  1  0  0  0
  6 43  1  0  0  0
  7 31  2  0  0  0
  8 29  1  0  0  0
  8 30  1  0  0  0
  8 44  1  0  0  0
  8 45  1  0  0  0
  9 27  1  0  0  0
  9 28  1  0  0  0
  9 46  1  0  0  0
  9 47  1  0  0  0
 10 12  2  0  0  0
 10 26  1  0  0  0
 11 25  1  0  0  0
 11 26  2  0  0  0
 11 48  1  0  0  0
 12 24  1  0  0  0
 12 27  1  0  0  0
 13 14  1  0  0  0
 13 22  2  0  0  0
 13 23  1  0  0  0
 14 20  2  0  0  0
 14 49  1  0  0  0
 15 20  1  0  0  0
 15 50  1  0  0  0
 15 51  1  0  0  0
 15 52  1  0  0  0
 16 21  1  0  0  0
 16 53  1  0  0  0
 16 54  1  0  0  0
 16 55  1  0  0  0
 17 28  1  0  0  0
 17 56  1  0  0  0
 17 57  1  0  0  0
 18 19  2  0  0  0
 19 20  1  0  0  0
 19 21  1  0  0  0
 21 22  1  0  0  0
 22 58  1  0  0  0
 23 27  1  0  0  0
 24 25  2  0  0  0
 24 59  1  0  0  0
 25 60  1  0  0  0
 26 61  1  0  0  0
 28 29  1  0  0  0
 28 62  1  0  0  0
 29 63  1  0  0  0
 29 64  1  0  0  0
 30 65  1  0  0  0
 30 66  1  0  0  0
 32 33  1  0  0  0
 32 67  1  0  0  0
 32 68  1  0  0  0
 33 34  1  0  0  0
 33 69  1  0  0  0
 34 35  1  0  0  0
 34 36  1  0  0  0
 34 70  1  0  0  0
 35 71  1  0  0  0
 35 72  1  0  0  0
 35 73  1  0  0  0
 36 74  1  0  0  0
 36 75  1  0  0  0
 36 76  1  0  0  0
M  CHG  1  33   1
M  END
> <i_m_stars>
0

> <s_m_entry_id>
19

> <s_m_entry_name>
Structure19

> <s_pdb_PDB_TITLE>
N-TERMINAL BROMODOMAIN OF HUMAN BRD4 WITH (S)-5-(1-((1-(1- ISOPROPYLPIPERIDINE-4-CARBONYL)PIPERIDIN-3-YL)METHYL)-1H- BENZO[D]IMIDAZOL-2-YL)-1,3-DIMETHYLPYRIDIN-2(1H)-ONE

> <s_pdb_PDB_ID>
8PXA

> <r_pdb_PDB_CRYST1_a>
44.845

> <r_pdb_PDB_CRYST1_b>
47.236

> <r_pdb_PDB_CRYST1_c>
58.974

> <r_pdb_PDB_CRYST1_alpha>
90

> <r_pdb_PDB_CRYST1_beta>
90

> <r_pdb_PDB_CRYST1_gamma>
90

> <s_pdb_PDB_CRYST1_Space_Group>
P 21 21 21

> <i_pdb_PDB_CRYST1_z>
4

> <s_pdb_PDB_CLASSIFICATION>
TRANSCRIPTION

> <s_pdb_PDB_DEPOSITION_DATE>
22-JUL-23

> <s_pdb_PDB_format_version>
3.30

> <r_pdb_PDB_R>
0.197999998927116

> <r_pdb_PDB_Rfree>
0.217999994754791

> <r_pdb_PDB_RESOLUTION>
1.3

> <s_pdb_PDB_EXPDTA>
X-RAY DIFFRACTION

> <r_pdb_PDB_EXPDTA_TEMPERATURE>
100

> <s_pdb_PDB_REMARK_350_Biomolecule_1_Chains>
AAA

> <s_pdb_PDB_REMARK_350_Biomolecule_1_Transformation_1>
1.000000 0.000000 0.000000   0.000000;0.000000 1.000000 0.000000   0.000000;0.000000 0.000000 1.000000   0.000000

> <s_m_Source_Path>
D:\Research\Benchmark_Tarpass\Targets\BRD4

> <s_m_Source_File>
8pxa.pdb

> <i_m_Source_File_Index>
1

> <s_ppw_entry_id_backup>
17

> <b_ppw_prepared>
1

> <s_ppw_prepared_with_version>
2018-1

> <b_ppw_assigned_bond_orders>
1

> <b_ppw_added_hydrogens>
1

> <b_ppw_treated_metals>
1

> <b_ppw_created_disulfur>
1

> <b_ppw_deleted_far_waters>
1

> <b_ppw_ran_protassign>
1

> <b_ppw_removed_non_hbond_waters>
1

$$$$
