ZOQ
                    3D
 Schrodinger Suite 2021-2.
 47 50  0  0  1  0            999 V2000
   52.7030   -7.9750    2.9250 C   0  0  0  0  0  0
   51.6170   -9.2300    6.2130 C   0  0  0  0  0  0
   51.7000  -10.5230    6.6900 C   0  0  0  0  0  0
   51.2940  -10.8350    7.9720 C   0  0  0  0  0  0
   50.8120   -9.8660    8.8110 C   0  0  0  0  0  0
   50.7480   -8.5860    8.3250 C   0  0  0  0  0  0
   51.1400   -8.2480    7.0540 C   0  0  0  0  0  0
   52.8820   -7.0350    1.9420 C   0  0  0  0  0  0
   52.5590   -7.3910   10.5140 C   0  0  0  0  0  0
   52.3750   -5.8350    8.6690 C   0  0  0  0  0  0
   51.0680   -3.5690    4.5640 C   0  0  0  0  0  0
   50.9430   -2.1220    4.3270 C   0  0  0  0  0  0
   49.9780   -1.2210    5.0560 C   0  0  0  0  0  0
   51.4030   -1.3090    5.4870 C   0  0  0  0  0  0
   51.8070   -5.5330    3.2760 C   0  0  0  0  0  0
   51.5870   -6.4190    4.3080 C   0  0  0  0  0  0
   52.0640   -7.7040    4.1190 C   0  0  0  0  0  0
   52.0720   -8.9140    4.8710 C   0  0  0  0  0  0
   52.7100   -9.8620    4.1050 C   0  0  0  0  0  0
   51.3340   -4.2280    3.3970 N   0  0  0  0  0  0
   51.6410   -6.5540    9.7340 N   0  0  0  0  0  0
   52.4270   -5.7960    2.1190 N   0  0  0  0  0  0
   53.0780   -9.2870    2.9260 N   0  0  0  0  0  0
   49.3590   -6.4630    8.4840 O   0  0  0  0  0  0
   49.6450   -7.8660   10.5880 O   0  0  0  0  0  0
   50.9650   -4.0310    5.6850 O   0  0  0  0  0  0
   50.1560   -7.2920    9.3600 S   0  0  0  0  0  0
   52.0871  -11.3081    6.0574 H   0  0  0  0  0  0
   51.3544  -11.8540    8.3246 H   0  0  0  0  0  0
   50.5006  -10.1247    9.8122 H   0  0  0  0  0  0
   51.0780   -7.2260    6.7104 H   0  0  0  0  0  0
   53.3909   -7.3005    1.0272 H   0  0  0  0  0  0
   52.0029   -7.9127   11.2929 H   0  0  0  0  0  0
   53.0340   -8.1198    9.8572 H   0  0  0  0  0  0
   53.3232   -6.7633   10.9723 H   0  0  0  0  0  0
   51.6791   -5.2187    8.0999 H   0  0  0  0  0  0
   53.1383   -5.1998    9.1184 H   0  0  0  0  0  0
   52.8490   -6.5562    8.0032 H   0  0  0  0  0  0
   51.2673   -1.7734    3.3465 H   0  0  0  0  0  0
   49.5491   -1.9523    5.7411 H   0  0  0  0  0  0
   50.0497   -0.3427    4.4144 H   0  0  0  0  0  0
   51.8038   -0.4477    4.9526 H   0  0  0  0  0  0
   51.3042   -2.0540    6.2765 H   0  0  0  0  0  0
   51.0686   -6.0936    5.1978 H   0  0  0  0  0  0
   52.8387  -10.8651    4.4839 H   0  0  0  0  0  0
   51.1890   -3.7650    2.5112 H   0  0  0  0  0  0
   53.5519   -9.6774    2.1241 H   0  0  0  0  0  0
  1  8  1  0  0  0
  1 17  2  0  0  0
  1 23  1  0  0  0
  2  3  1  0  0  0
  2  7  2  0  0  0
  2 18  1  0  0  0
  3  4  2  0  0  0
  3 28  1  0  0  0
  4  5  1  0  0  0
  4 29  1  0  0  0
  5  6  2  0  0  0
  5 30  1  0  0  0
  6  7  1  0  0  0
  6 27  1  0  0  0
  7 31  1  0  0  0
  8 22  2  0  0  0
  8 32  1  0  0  0
  9 21  1  0  0  0
  9 33  1  0  0  0
  9 34  1  0  0  0
  9 35  1  0  0  0
 10 21  1  0  0  0
 10 36  1  0  0  0
 10 37  1  0  0  0
 10 38  1  0  0  0
 11 12  1  0  0  0
 11 20  1  0  0  0
 11 26  2  0  0  0
 12 13  1  0  0  0
 12 14  1  0  0  0
 12 39  1  0  0  0
 13 14  1  0  0  0
 13 40  1  0  0  0
 13 41  1  0  0  0
 14 42  1  0  0  0
 14 43  1  0  0  0
 15 16  2  0  0  0
 15 20  1  0  0  0
 15 22  1  0  0  0
 16 17  1  0  0  0
 16 44  1  0  0  0
 17 18  1  0  0  0
 18 19  2  0  0  0
 19 23  1  0  0  0
 19 45  1  0  0  0
 20 46  1  0  0  0
 21 27  1  0  0  0
 23 47  1  0  0  0
 24 27  2  0  0  0
 25 27  2  0  0  0
M  END
> <i_m_stars>
0

> <s_m_entry_id>
23

> <s_m_entry_name>
Structure23

> <s_pdb_PDB_TITLE>
TYK2 JH2 BOUND TO COMPOUND7

> <s_pdb_PDB_ID>
8TB5

> <r_pdb_PDB_CRYST1_a>
55.941

> <r_pdb_PDB_CRYST1_b>
47.497

> <r_pdb_PDB_CRYST1_c>
113.379

> <r_pdb_PDB_CRYST1_alpha>
90

> <r_pdb_PDB_CRYST1_beta>
93.51

> <r_pdb_PDB_CRYST1_gamma>
90

> <s_pdb_PDB_CRYST1_Space_Group>
P 1 21 1

> <i_pdb_PDB_CRYST1_z>
4

> <s_pdb_PDB_CLASSIFICATION>
SIGNALING PROTEIN

> <s_pdb_PDB_DEPOSITION_DATE>
28-JUN-23

> <s_pdb_PDB_format_version>
3.30

> <r_pdb_PDB_R>
0.184

> <r_pdb_PDB_Rfree>
0.243

> <r_pdb_PDB_RESOLUTION>
2.32

> <s_pdb_PDB_EXPDTA>
X-RAY DIFFRACTION

> <r_pdb_PDB_EXPDTA_TEMPERATURE>
100

> <s_pdb_PDB_REMARK_350_Biomolecule_1_Transform_1_Chains>
A

> <s_pdb_PDB_REMARK_350_Biomolecule_1_Transform_1_Matrix_1>
1.000000 0.000000 0.000000   0.000000;0.000000 1.000000 0.000000   0.000000;0.000000 0.000000 1.000000   0.000000

> <s_m_Source_Path>
/home/sorui/Research/Tarpass/Targets/TYK2

> <s_m_Source_File>
8tb5.pdb

> <i_m_Source_File_Index>
1

> <s_ppw_entry_id_backup>
21

> <b_ppw_prepared>
1

> <s_ppw_prepared_with_version>
2021-2

> <b_ppw_assigned_bond_orders>
1

> <b_ppw_added_hydrogens>
1

> <b_ppw_treated_metals>
1

> <b_ppw_created_disulfur>
1

> <s_ppw_het_states>
eJztVz1PwzAU/CuWV9Lg95LGcboxsSJG1KEqnSgtQxhQ1f+OP+JenLZCQqIUkU6ny4vvffj00p0k2Ygn+yNjKBNqngkHGbDIxIQ6XDra4S48RHL3NBA2nhKidIRlVK4Um0zs9pbIjdH2sXxsF+1KvK02i3X70fgY8bJcrG9ft+uZuJ/cbTfPYrl937SNoJl4aGwy0p0mGYnXyNZ0kJVSgATIgAVgCTgFrAA1YA0INYIaQY2gRlAjqBHUCGoENYIaQY2hxlBjqDHUOBmaPS7UGGfkCZcR9wknQGhp6GZK9F7xBMVDQ3DoOmMAofeEMYQJMIYRDqU+wT1i6lUMXqk8USNCD4lQrRkQrr0Jwb08Qi0KEYGgA0FqSPhaCGd0hB5GIA8f7LseiXLQQgrVVji0SuYS6kwaxBQJxn2IxNx5jknbpHbS5SKd2eqS2LqxyHXtejB0o32Dz7qx8G5U0t+s0YXfc2FiusN9+BMuJIznulyYEnpoy1MujBEXcKHKdUlhCRY5T82pHajLs67j/+u62OBx912j665799lVpwsTbUdcnfz2rPUXvruh0Xjjursu4x2tuyPjRRf9zrobjTd+Z47Gu7jxfurf3nz/CZIw09g=

> <b_ppw_ran_protassign>
1

> <b_ppw_deleted_far_waters>
1

> <r_pdb_PDB_EXPDTA_PH>
8.5

> <s_pdb_PDB_REMARK_350_Biomolecule_2_Transform_1_Chains>
B

> <s_pdb_PDB_REMARK_350_Biomolecule_2_Transform_1_Matrix_1>
1.000000 0.000000 0.000000   0.000000;0.000000 1.000000 0.000000   0.000000;0.000000 0.000000 1.000000   0.000000

$$$$
