QQC
                    3D
 Structure written by MMmdl.
 58 62  0  0  1  0            999 V2000
   12.8530  -14.9300   48.9450 C   0  0  0  0  0  0
   12.4340  -15.5860   50.2550 C   0  0  0  0  0  0
   15.0550  -14.6110   52.7910 C   0  0  0  0  0  0
   14.2880  -16.8770   53.2360 C   0  0  0  0  0  0
   14.6760  -18.7600   46.4530 C   0  0  0  0  0  0
   13.7460  -15.7510   43.6170 C   0  0  0  0  0  0
   12.8580  -14.6270   41.6450 C   0  0  0  0  0  0
   13.9680  -10.5730   42.2570 C   0  0  0  0  0  0
   13.5010  -10.7170   43.7100 C   0  0  0  0  0  0
   13.5880  -11.7220   44.5970 C   0  0  0  0  0  0
   12.9550  -11.2000   45.7960 C   0  0  0  0  0  0
   13.0660  -13.1570   47.2950 C   0  0  0  0  0  0
   14.2990  -16.2060   46.0300 C   0  0  0  0  0  0
   14.2490  -17.3710   46.7900 C   0  0  0  0  0  0
   13.4260  -15.7720   47.9850 C   0  0  0  0  0  0
   12.6970  -13.6210   48.6010 C   0  0  0  0  0  0
   13.8880  -14.4190   51.7540 C   0  0  0  0  0  0
   13.1310  -16.6380   52.2260 C   0  0  0  0  0  0
   14.8010  -16.0100   44.6860 C   0  0  0  0  0  0
   13.8360  -14.8100   42.6170 C   0  0  0  0  0  0
   11.7380  -15.4790   41.7250 C   0  0  0  0  0  0
   11.6550  -16.4450   42.6700 C   0  0  0  0  0  0
   12.6100  -16.5500   43.6130 C   0  0  0  0  0  0
   14.9080  -14.0080   42.5210 F   0  0  0  0  0  0
   12.6060   -9.9750   45.6020 N   0  0  0  0  0  0
   12.9090   -9.6960   44.3460 N   0  0  0  0  0  0
   12.8130  -11.8510   47.0040 N   0  0  0  0  0  0
   13.6350  -13.9480   46.4440 N   0  0  0  0  0  0
   13.8040  -15.2130   46.8130 N   0  0  0  0  0  0
   13.6970  -17.1120   48.0090 N   0  0  0  0  0  0
   13.5310  -15.7270   51.1740 N   0  0  0  0  0  0
   14.7490  -15.6160   53.7660 O   0  0  0  0  0  0
   10.5060  -15.2820   40.5250 Cl  0  0  0  0  0  0
   12.0060  -16.5669   50.0484 H   0  0  0  0  0  0
   11.6452  -14.9948   50.7203 H   0  0  0  0  0  0
   15.2514  -13.6647   53.2951 H   0  0  0  0  0  0
   15.9682  -14.8847   52.2625 H   0  0  0  0  0  0
   15.1119  -17.3817   52.7315 H   0  0  0  0  0  0
   13.9331  -17.5060   54.0524 H   0  0  0  0  0  0
   14.4831  -19.4160   47.3018 H   0  0  0  0  0  0
   14.1158  -19.1129   45.5871 H   0  0  0  0  0  0
   15.7415  -18.7675   46.2235 H   0  0  0  0  0  0
   12.9839  -13.8663   40.8887 H   0  0  0  0  0  0
   13.7010   -9.5837   41.8854 H   0  0  0  0  0  0
   15.0496  -10.6992   42.2082 H   0  0  0  0  0  0
   13.4859  -11.3336   41.6428 H   0  0  0  0  0  0
   14.0591  -12.6520   44.3149 H   0  0  0  0  0  0
   12.2915  -12.9196   49.3151 H   0  0  0  0  0  0
   14.2144  -13.7469   50.9604 H   0  0  0  0  0  0
   13.0194  -13.9965   52.2590 H   0  0  0  0  0  0
   12.2688  -16.2284   52.7523 H   0  0  0  0  0  0
   12.8302  -17.5893   51.7872 H   0  0  0  0  0  0
   15.5211  -15.1918   44.6866 H   0  0  0  0  0  0
   15.4020  -16.8722   44.3970 H   0  0  0  0  0  0
   10.8220  -17.1324   42.6678 H   0  0  0  0  0  0
   12.4676  -17.2900   44.3866 H   0  0  0  0  0  0
   12.7397   -8.8276   43.8588 H   0  0  0  0  0  0
   12.4825  -11.3462   47.8139 H   0  0  0  0  0  0
  1  2  1  0  0  0
  1 15  1  0  0  0
  1 16  2  0  0  0
  2 31  1  0  0  0
  2 34  1  0  0  0
  2 35  1  0  0  0
  3 17  1  0  0  0
  3 32  1  0  0  0
  3 36  1  0  0  0
  3 37  1  0  0  0
  4 18  1  0  0  0
  4 32  1  0  0  0
  4 38  1  0  0  0
  4 39  1  0  0  0
  5 14  1  0  0  0
  5 40  1  0  0  0
  5 41  1  0  0  0
  5 42  1  0  0  0
  6 19  1  0  0  0
  6 20  1  0  0  0
  6 23  2  0  0  0
  7 20  2  0  0  0
  7 21  1  0  0  0
  7 43  1  0  0  0
  8  9  1  0  0  0
  8 44  1  0  0  0
  8 45  1  0  0  0
  8 46  1  0  0  0
  9 10  2  0  0  0
  9 26  1  0  0  0
 10 11  1  0  0  0
 10 47  1  0  0  0
 11 25  2  0  0  0
 11 27  1  0  0  0
 12 16  1  0  0  0
 12 27  1  0  0  0
 12 28  2  0  0  0
 13 14  2  0  0  0
 13 19  1  0  0  0
 13 29  1  0  0  0
 14 30  1  0  0  0
 15 29  1  0  0  0
 15 30  2  0  0  0
 16 48  1  0  0  0
 17 31  1  0  0  0
 17 49  1  0  0  0
 17 50  1  0  0  0
 18 31  1  0  0  0
 18 51  1  0  0  0
 18 52  1  0  0  0
 19 53  1  0  0  0
 19 54  1  0  0  0
 20 24  1  0  0  0
 21 22  2  0  0  0
 21 33  1  0  0  0
 22 23  1  0  0  0
 22 55  1  0  0  0
 23 56  1  0  0  0
 25 26  1  0  0  0
 26 57  1  0  0  0
 27 58  1  0  0  0
 28 29  1  0  0  0
M  END
> <i_m_stars>
0

> <s_m_entry_id>
40

> <s_m_entry_name>
Structure40

> <s_pdb_PDB_TITLE>
CRYSTAL STRUCTURE OF JAK2 JH1 IN COMPLEX WITH GANDOTINIB

> <s_pdb_PDB_ID>
8BM2

> <r_pdb_PDB_CRYST1_a>
99.894

> <r_pdb_PDB_CRYST1_b>
69.254

> <r_pdb_PDB_CRYST1_c>
110.299

> <r_pdb_PDB_CRYST1_alpha>
90

> <r_pdb_PDB_CRYST1_beta>
98.68

> <r_pdb_PDB_CRYST1_gamma>
90

> <s_pdb_PDB_CRYST1_Space_Group>
I 1 2 1

> <i_pdb_PDB_CRYST1_z>
8

> <s_pdb_PDB_CLASSIFICATION>
TRANSFERASE

> <s_pdb_PDB_DEPOSITION_DATE>
10-NOV-22

> <s_pdb_PDB_format_version>
3.30

> <r_pdb_PDB_R>
0.177000001072884

> <r_pdb_PDB_Rfree>
0.202000007033348

> <r_pdb_PDB_RESOLUTION>
1.5

> <s_pdb_PDB_EXPDTA>
X-RAY DIFFRACTION

> <r_pdb_PDB_EXPDTA_TEMPERATURE>
100

> <r_pdb_PDB_EXPDTA_PH>
8.2

> <s_pdb_PDB_REMARK_350_Biomolecule_1_Chains>
A

> <s_pdb_PDB_REMARK_350_Biomolecule_1_Transformation_1>
1.000000 0.000000 0.000000   0.000000;0.000000 1.000000 0.000000   0.000000;0.000000 0.000000 1.000000   0.000000

> <s_pdb_PDB_REMARK_350_Biomolecule_2_Chains>
B

> <s_pdb_PDB_REMARK_350_Biomolecule_2_Transformation_1>
1.000000 0.000000 0.000000   0.000000;0.000000 1.000000 0.000000   0.000000;0.000000 0.000000 1.000000   0.000000

> <s_m_Source_Path>
D:\Research\Benchmark_Tarpass\Targets\JAK2

> <s_m_Source_File>
8bm2.pdb

> <i_m_Source_File_Index>
1

> <s_ppw_entry_id_backup>
38

> <b_ppw_prepared>
1

> <s_ppw_prepared_with_version>
2018-1

> <b_ppw_assigned_bond_orders>
1

> <b_ppw_added_hydrogens>
1

> <b_ppw_treated_metals>
1

> <b_ppw_created_disulfur>
1

> <b_ppw_deleted_far_waters>
1

> <i_psp_model_num>
0

> <r_psp_Prime_Coulomb>
-9816.56952752771

> <r_psp_Prime_Covalent>
16791.2316873306

> <r_psp_Prime_vdW>
139.389791488086

> <r_psp_Prime_Solv_GB>
-2268.43731140168

> <r_psp_Prime_Lipo>
-743.721574516123

> <r_psp_Prime_Energy>
3843.11675721137

> <s_psp_Prime_Energy_Force_Field>
OPLS3

> <s_psp_Prime_Energy_Solvent_Model>
VSGB2.1

> <r_psp_Prime_Hbond>
-183.352089849744

> <r_psp_Prime_Packing>
-28.9770037404197

> <r_psp_Prime_SelfCont>
-46.4472145716447

> <b_ppw_ran_protassign>
1

$$$$
