2VN
                    3D
 Schrodinger Suite 2021-2.
 80 82  0  0  1  0            999 V2000
   16.1860    3.0160   -2.1440 C   0  0  0  0  0  0
    6.3820    7.6280   -2.7510 C   0  0  0  0  0  0
   10.0490    7.4860   -7.4770 C   0  0  0  0  0  0
   10.2540    7.5970   -8.9890 C   0  0  0  0  0  0
   10.8240    8.9760   -9.3010 C   0  0  0  0  0  0
   10.7250    9.2470  -10.7990 C   0  0  0  0  0  0
   11.8060    8.4380  -11.4870 C   0  0  0  0  0  0
   11.7960    8.6890  -13.0010 C   0  0  0  0  0  0
   11.9150   10.1740  -13.3210 C   0  0  0  0  0  0
   10.8590   10.9960  -12.5740 C   0  0  0  0  0  0
   10.9640   10.7250  -11.0780 C   0  0  0  0  0  0
    9.9970    3.6660   -4.8840 C   0  0  0  0  0  0
    6.4460    6.1640   -3.1650 C   0  0  0  0  0  0
   11.3570    3.1350   -4.4200 C   0  0  0  0  0  0
   12.3330    2.8870   -5.3720 C   0  0  0  0  0  0
   13.5780    2.4350   -4.9800 C   0  0  0  0  0  0
   13.8480    2.2330   -3.6470 C   0  0  0  0  0  0
   12.8820    2.4930   -2.6860 C   0  0  0  0  0  0
   11.6330    2.9530   -3.0730 C   0  0  0  0  0  0
   15.5330    2.9260   -0.7700 C   0  0  0  0  0  0
   17.6950    2.8660   -2.0170 C   0  0  0  0  0  0
   15.8690    4.3890   -2.7350 C   0  0  0  0  0  0
    6.3380    5.2260   -1.9600 C   0  0  0  0  0  0
    5.0630    5.5010   -1.1680 C   0  0  0  0  0  0
    4.9240    6.9720   -0.7930 C   0  0  0  0  0  0
    5.0780    7.8860   -1.9990 C   0  0  0  0  0  0
    7.9100    6.1780   -5.1950 C   0  0  0  0  0  0
   10.2040    5.1820   -4.9730 C   0  0  0  0  0  0
    9.4360    6.1180   -7.1910 C   0  0  0  0  0  0
    9.1880    5.8380   -5.7790 N   0  0  0  0  0  0
    7.7050    5.8630   -3.7960 N   0  0  0  0  0  0
   15.5730    1.8440   -0.1170 O   0  5  0  0  0  0
    7.0610    6.7110   -5.8300 O   0  0  0  0  0  0
   14.9500    3.9410   -0.3120 O   0  0  0  0  0  0
   15.4920    1.6740   -3.1470 S   0  0  0  0  0  0
    6.4197    8.2585   -3.6393 H   0  0  0  0  0  0
    7.2270    7.8592   -2.1024 H   0  0  0  0  0  0
    9.3645    8.2668   -7.1454 H   0  0  0  0  0  0
   11.0126    7.5642   -6.9735 H   0  0  0  0  0  0
    9.2960    7.4772   -9.4950 H   0  0  0  0  0  0
   10.9566    6.8310   -9.3173 H   0  0  0  0  0  0
   11.8689    9.0151   -8.9932 H   0  0  0  0  0  0
   10.2600    9.7336   -8.7569 H   0  0  0  0  0  0
    9.7434    8.9505  -11.1687 H   0  0  0  0  0  0
   11.6441    7.3775  -11.2939 H   0  0  0  0  0  0
   12.7792    8.7125  -11.0800 H   0  0  0  0  0  0
   10.8717    8.2990  -13.4273 H   0  0  0  0  0  0
   12.6234    8.1508  -13.4634 H   0  0  0  0  0  0
   11.7991   10.3242  -14.3944 H   0  0  0  0  0  0
   12.9095   10.5257  -13.0464 H   0  0  0  0  0  0
    9.8658   10.7159  -12.9249 H   0  0  0  0  0  0
   11.0238   12.0567  -12.7633 H   0  0  0  0  0  0
   11.9574   11.0047  -10.7272 H   0  0  0  0  0  0
   10.2197   11.3195  -10.5482 H   0  0  0  0  0  0
    9.2467    3.4486   -4.1238 H   0  0  0  0  0  0
    9.7763    3.2734   -5.8766 H   0  0  0  0  0  0
    5.6346    5.9509   -3.8609 H   0  0  0  0  0  0
   12.1196    3.0472   -6.4185 H   0  0  0  0  0  0
   14.3396    2.2402   -5.7206 H   0  0  0  0  0  0
   13.1044    2.3369   -1.6407 H   0  0  0  0  0  0
   10.8769    3.1694   -2.3328 H   0  0  0  0  0  0
   18.1516    2.9318   -3.0046 H   0  0  0  0  0  0
   18.0875    3.6604   -1.3821 H   0  0  0  0  0  0
   17.9284    1.8982   -1.5732 H   0  0  0  0  0  0
   16.3273    4.4757   -3.7202 H   0  0  0  0  0  0
   14.7891    4.5056   -2.8257 H   0  0  0  0  0  0
   16.2642    5.1666   -2.0813 H   0  0  0  0  0  0
    7.2042    5.3650   -1.3131 H   0  0  0  0  0  0
    6.3354    4.1918   -2.3042 H   0  0  0  0  0  0
    5.0608    4.8943   -0.2624 H   0  0  0  0  0  0
    4.1979    5.1934   -1.7555 H   0  0  0  0  0  0
    5.6750    7.2282   -0.0457 H   0  0  0  0  0  0
    3.9495    7.1386   -0.3340 H   0  0  0  0  0  0
    4.2350    7.7401   -2.6744 H   0  0  0  0  0  0
    5.0474    8.9255   -1.6724 H   0  0  0  0  0  0
   11.1886    5.3892   -5.3922 H   0  0  0  0  0  0
   10.2009    5.6076   -3.9695 H   0  0  0  0  0  0
   10.0786    5.3411   -7.6053 H   0  0  0  0  0  0
    8.5044    6.0167   -7.7478 H   0  0  0  0  0  0
    8.4456    5.4316   -3.2617 H   0  0  0  0  0  0
  1 20  1  0  0  0
  1 21  1  0  0  0
  1 22  1  0  0  0
  1 35  1  0  0  0
  2 13  1  0  0  0
  2 26  1  0  0  0
  2 36  1  0  0  0
  2 37  1  0  0  0
  3  4  1  0  0  0
  3 29  1  0  0  0
  3 38  1  0  0  0
  3 39  1  0  0  0
  4  5  1  0  0  0
  4 40  1  0  0  0
  4 41  1  0  0  0
  5  6  1  0  0  0
  5 42  1  0  0  0
  5 43  1  0  0  0
  6  7  1  0  0  0
  6 11  1  0  0  0
  6 44  1  0  0  0
  7  8  1  0  0  0
  7 45  1  0  0  0
  7 46  1  0  0  0
  8  9  1  0  0  0
  8 47  1  0  0  0
  8 48  1  0  0  0
  9 10  1  0  0  0
  9 49  1  0  0  0
  9 50  1  0  0  0
 10 11  1  0  0  0
 10 51  1  0  0  0
 10 52  1  0  0  0
 11 53  1  0  0  0
 11 54  1  0  0  0
 12 14  1  0  0  0
 12 28  1  0  0  0
 12 55  1  0  0  0
 12 56  1  0  0  0
 13 23  1  0  0  0
 13 31  1  0  0  0
 13 57  1  0  0  0
 14 15  2  0  0  0
 14 19  1  0  0  0
 15 16  1  0  0  0
 15 58  1  0  0  0
 16 17  2  0  0  0
 16 59  1  0  0  0
 17 18  1  0  0  0
 17 35  1  0  0  0
 18 19  2  0  0  0
 18 60  1  0  0  0
 19 61  1  0  0  0
 20 32  1  0  0  0
 20 34  2  0  0  0
 21 62  1  0  0  0
 21 63  1  0  0  0
 21 64  1  0  0  0
 22 65  1  0  0  0
 22 66  1  0  0  0
 22 67  1  0  0  0
 23 24  1  0  0  0
 23 68  1  0  0  0
 23 69  1  0  0  0
 24 25  1  0  0  0
 24 70  1  0  0  0
 24 71  1  0  0  0
 25 26  1  0  0  0
 25 72  1  0  0  0
 25 73  1  0  0  0
 26 74  1  0  0  0
 26 75  1  0  0  0
 27 30  1  0  0  0
 27 31  1  0  0  0
 27 33  2  0  0  0
 28 30  1  0  0  0
 28 76  1  0  0  0
 28 77  1  0  0  0
 29 30  1  0  0  0
 29 78  1  0  0  0
 29 79  1  0  0  0
 31 80  1  0  0  0
M  CHG  1  32  -1
M  END
> <i_m_stars>
0

> <s_m_entry_id>
6

> <s_m_entry_name>
Structure6

> <s_pdb_PDB_TITLE>
X-RAY STRUCTURE OF HUMAN PPARALPHA LIGAND BINDING DOMAIN-GW7647 CO- CRYSTALS OBTAINED BY SOAKING

> <s_pdb_PDB_ID>
6KAY

> <r_pdb_PDB_CRYST1_a>
44.71

> <r_pdb_PDB_CRYST1_b>
62.14

> <r_pdb_PDB_CRYST1_c>
53.127

> <r_pdb_PDB_CRYST1_alpha>
90

> <r_pdb_PDB_CRYST1_beta>
106.71

> <r_pdb_PDB_CRYST1_gamma>
90

> <s_pdb_PDB_CRYST1_Space_Group>
P 1 21 1

> <i_pdb_PDB_CRYST1_z>
2

> <s_pdb_PDB_CLASSIFICATION>
TRANSCRIPTION

> <s_pdb_PDB_DEPOSITION_DATE>
24-JUN-19

> <s_pdb_PDB_format_version>
3.30

> <r_pdb_PDB_R>
0.207

> <r_pdb_PDB_Rfree>
0.252

> <r_pdb_PDB_RESOLUTION>
1.74

> <s_pdb_PDB_EXPDTA>
X-RAY DIFFRACTION

> <r_pdb_PDB_EXPDTA_TEMPERATURE>
100

> <s_pdb_PDB_REMARK_350_Biomolecule_1_Transform_1_Chains>
A

> <s_pdb_PDB_REMARK_350_Biomolecule_1_Transform_1_Matrix_1>
1.000000 0.000000 0.000000   0.000000;0.000000 1.000000 0.000000   0.000000;0.000000 0.000000 1.000000   0.000000

> <s_m_Source_Path>
/home/sorui/Research/Tarpass/Targets/PPAR-alpha

> <s_m_Source_File>
6kay.pdb

> <i_m_Source_File_Index>
1

> <s_ppw_entry_id_backup>
4

> <b_ppw_prepared>
1

> <s_ppw_prepared_with_version>
2021-2

> <b_ppw_assigned_bond_orders>
1

> <b_ppw_added_hydrogens>
1

> <b_ppw_treated_metals>
1

> <b_ppw_created_disulfur>
1

> <s_ppw_het_states>
eJyVlDFTwzAMhf+KL3MLtttEUrsxsXKMHEOudKIkHcLA9frfseS4LzUTnd492/r8IrmXJjQ795Z+0be8cv595VTKTXYeMkBGyA3kFrKF7CAJErQONAKNQCPQCDQCjUAj0Ag0Ao1AY9AYNAaNQWPQGDQGjUFj0DjR1iFrAU6AE8OpnnuQLz6fmQ2uDakMrVIMsR2+MjRLQE9zO+8MDVOMYDtQVGXudTE2ZmxrAzfVtTwIxWjNWFA6M5BW5X2NnCVUBqMo5av72kANsiw6Q/HOwD1szUarGJZFB6wcsSy0wG6rr05tKVqOWBZGo7KhnY8Yvzx5AUOY568YseocG5apNrgydNQKpa2PdDCSs/YPafPlmkwVzevUT0d3Pg79afrZ2bJ3n4f+9Pg1nvbuef00Dh/uMH4P087FvXtJe0KjlZp4+y8RPBzBwxE8HMHDETwc4cVbEGuCYMJmA00QiyZdbSCr5G/Of7L6/2f1ltWnqNdfqKkdZw==

> <b_ppw_ran_protassign>
1

> <b_ppw_deleted_far_waters>
1

$$$$
