N2L
                    3D
 Structure written by MMmdl.
115124  0  0  1  0            999 V2000
   -2.2350    7.6790   13.1550 N   0  3  0  0  0  0
   -4.2330   11.1050    9.1380 N   0  0  0  0  0  0
   -5.2530    7.8300   10.2130 C   0  0  0  0  0  0
   -4.8040    6.5950   10.6310 C   0  0  0  0  0  0
   -3.7960    6.4640   11.6030 C   0  0  0  0  0  0
   -3.9480    3.9650   11.5920 C   0  0  0  0  0  0
   -3.0930    2.7830   12.0400 C   0  0  0  0  0  0
   -2.9290    0.3050   12.2390 C   0  0  0  0  0  0
   -4.1370   10.4540    7.9270 C   0  0  0  0  0  0
   -2.6400   12.2740    7.1010 C   0  0  0  0  0  0
   -1.0910   11.9120    5.2820 C   0  0  0  0  0  0
   -2.4230    7.8800    6.9030 C   0  0  0  0  0  0
   -2.7710    6.5200    6.6190 C   0  0  0  0  0  0
   -1.7040    5.8610    8.5140 C   0  0  0  0  0  0
   -0.5910    7.0470   10.1040 C   0  0  0  0  0  0
   -1.7050    8.2170    8.0340 C   0  0  0  0  0  0
    1.0800   12.0860    2.2680 C   0  0  0  0  0  0
   -3.2680    7.6530   12.1520 C   0  0  0  0  0  0
   -2.0160    1.6130   13.9670 C   0  0  0  0  0  0
   -2.7950    2.8330   13.5350 C   0  0  0  0  0  0
   -3.0760   10.9480    7.0110 C   0  0  0  0  0  0
   -1.6580   12.7510    6.2490 C   0  0  0  0  0  0
   -1.4960   10.5740    5.2250 C   0  0  0  0  0  0
   -2.4740   10.1160    6.0780 C   0  0  0  0  0  0
   -3.7260    8.8970   11.7350 C   0  0  0  0  0  0
   -0.5560    5.7120   10.4190 C   0  0  0  0  0  0
   -1.3130    7.1690    8.8820 C   0  0  0  0  0  0
    0.6270   11.4520    3.5490 C   0  0  0  0  0  0
    1.8860   13.3480    2.5400 C   0  0  0  0  0  0
   -4.7130    8.9750   10.7730 C   0  0  0  0  0  0
    1.0300   14.2980    3.3720 C   0  0  0  0  0  0
    0.5460   13.6700    4.6510 C   0  0  0  0  0  0
    2.4800   14.0200    1.2810 C   0  0  0  0  0  0
    3.8180   13.3020    1.5570 C   0  0  0  0  0  0
    3.3430   13.1200    3.0130 C   0  0  0  0  0  0
    5.0960   14.7010    0.0090 C   0  0  0  0  0  0
    6.5550   15.1380   -0.1510 C   0  0  0  0  0  0
    7.3030   14.4350    0.9780 C   0  0  0  0  0  0
    6.3140   13.3750    1.4870 C   0  0  1  0  0  0
    6.5550   12.8800    2.8950 C   0  0  0  0  0  0
    6.7280   13.8050    3.9510 C   0  0  0  0  0  0
    6.8970   13.3510    5.2470 C   0  0  0  0  0  0
    6.8980   12.0040    5.5170 C   0  0  0  0  0  0
    6.7220   11.0830    4.4920 C   0  0  0  0  0  0
    6.5590   11.5110    3.1800 C   0  0  0  0  0  0
    6.3850   10.5120    2.0850 C   0  0  0  0  0  0
    5.1170    9.7470    1.8900 C   0  0  0  0  0  0
    6.3230    9.0330    2.3270 C   0  0  0  0  0  0
   -3.7600    1.4490   11.7140 C   0  0  0  0  0  0
   -3.3560    5.2320   12.0060 N   0  0  0  0  0  0
   -2.3990    5.5190    7.4240 N   0  0  0  0  0  0
   -1.2240    4.9930    9.4570 N   0  0  0  0  0  0
   -0.0930   12.3620    4.4500 N   0  0  0  0  0  0
    5.0290   14.1110    1.3530 N   0  3  2  0  0  0
   -1.7830    6.6220   13.5840 O   0  5  0  0  0  0
   -1.8440    8.7710   13.5500 O   0  0  0  0  0  0
   -2.7060    0.4080   13.6410 O   0  0  0  0  0  0
   -6.6120   10.4240    9.7800 O   0  0  0  0  0  0
   -5.0870   11.4250   11.4160 O   0  0  0  0  0  0
   -4.8850    9.5380    7.6290 O   0  5  0  0  0  0
   -2.8590    8.7830    5.9590 O   0  0  0  0  0  0
   -5.2760   10.5750   10.2890 S   0  0  0  0  0  0
   -6.0194    7.8978    9.4551 H   0  0  0  0  0  0
   -5.2280    5.6954   10.2100 H   0  0  0  0  0  0
   -4.9462    3.8738   12.0203 H   0  0  0  0  0  0
   -4.0490    3.9491   10.5068 H   0  0  0  0  0  0
   -2.1451    2.8279   11.5038 H   0  0  0  0  0  0
   -1.9707    0.2849   11.7200 H   0  0  0  0  0  0
   -3.4303   -0.6377   12.0199 H   0  0  0  0  0  0
   -3.0697   12.9348    7.8393 H   0  0  0  0  0  0
   -3.3474    6.2830    5.7369 H   0  0  0  0  0  0
   -0.1163    7.7677   10.7534 H   0  0  0  0  0  0
   -1.4679    9.2513    8.2348 H   0  0  0  0  0  0
    0.2109   12.3347    1.6590 H   0  0  0  0  0  0
    1.6920   11.3779    1.7092 H   0  0  0  0  0  0
   -1.8455    1.6537   15.0428 H   0  0  0  0  0  0
   -1.0402    1.6150   13.4813 H   0  0  0  0  0  0
   -3.7317    2.8810   14.0904 H   0  0  0  0  0  0
   -2.2186    3.7302   13.7604 H   0  0  0  0  0  0
   -1.3254   13.7754    6.3282 H   0  0  0  0  0  0
   -1.0412    9.9020    4.5122 H   0  0  0  0  0  0
   -3.3099    9.7970   12.1632 H   0  0  0  0  0  0
   -0.0510    5.3816   11.3147 H   0  0  0  0  0  0
    1.4887   11.0347    4.0700 H   0  0  0  0  0  0
   -0.0045   10.5927    3.3232 H   0  0  0  0  0  0
    0.1736   14.6248    2.7821 H   0  0  0  0  0  0
    1.6047   15.1948    3.6036 H   0  0  0  0  0  0
   -0.1559   14.3440    5.1421 H   0  0  0  0  0  0
    1.3833   13.5616    5.3404 H   0  0  0  0  0  0
    2.6208   15.0769    1.5075 H   0  0  0  0  0  0
    2.0261   13.5468    0.4103 H   0  0  0  0  0  0
    3.8783   12.3488    1.0318 H   0  0  0  0  0  0
    3.4462   12.0641    3.2630 H   0  0  0  0  0  0
    3.6495   14.0042    3.5719 H   0  0  0  0  0  0
    4.8645   13.9367   -0.7329 H   0  0  0  0  0  0
    4.4497   15.5777   -0.0332 H   0  0  0  0  0  0
    6.6261   16.2171   -0.0146 H   0  0  0  0  0  0
    6.9346   14.7859   -1.1102 H   0  0  0  0  0  0
    7.5078   15.1497    1.7751 H   0  0  0  0  0  0
    8.1856   13.9400    0.5728 H   0  0  0  0  0  0
    6.3144   12.5262    0.8032 H   0  0  0  0  0  0
    6.7281   14.8653    3.7455 H   0  0  0  0  0  0
    7.0292   14.0570    6.0536 H   0  0  0  0  0  0
    7.0361   11.6564    6.5302 H   0  0  0  0  0  0
    6.7111   10.0257    4.7120 H   0  0  0  0  0  0
    6.8822   10.7863    1.1546 H   0  0  0  0  0  0
    5.1816    9.5657    0.8171 H   0  0  0  0  0  0
    4.6523    9.9222    2.8603 H   0  0  0  0  0  0
    6.1496    9.0388    3.4031 H   0  0  0  0  0  0
    6.6793    8.6821    1.3585 H   0  0  0  0  0  0
   -3.8696    1.3523   10.6338 H   0  0  0  0  0  0
   -4.7500    1.4173   12.1690 H   0  0  0  0  0  0
   -2.5684    5.1576   12.6339 H   0  0  0  0  0  0
   -1.3918    4.0015    9.3627 H   0  0  0  0  0  0
    5.0239   14.8625    2.0277 H   0  0  0  0  0  0
  1 18  1  0  0  0
  1 55  1  0  0  0
  1 56  2  0  0  0
  2  9  2  0  0  0
  2 62  1  0  0  0
  3  4  1  0  0  0
  3 30  2  0  0  0
  3 63  1  0  0  0
  4  5  2  0  0  0
  4 64  1  0  0  0
  5 18  1  0  0  0
  5 50  1  0  0  0
  6  7  1  0  0  0
  6 50  1  0  0  0
  6 65  1  0  0  0
  6 66  1  0  0  0
  7 20  1  0  0  0
  7 49  1  0  0  0
  7 67  1  0  0  0
  8 49  1  0  0  0
  8 57  1  0  0  0
  8 68  1  0  0  0
  8 69  1  0  0  0
  9 21  1  0  0  0
  9 60  1  0  0  0
 10 21  1  0  0  0
 10 22  2  0  0  0
 10 70  1  0  0  0
 11 22  1  0  0  0
 11 23  2  0  0  0
 11 53  1  0  0  0
 12 13  1  0  0  0
 12 16  2  0  0  0
 12 61  1  0  0  0
 13 51  2  0  0  0
 13 71  1  0  0  0
 14 27  2  0  0  0
 14 51  1  0  0  0
 14 52  1  0  0  0
 15 26  2  0  0  0
 15 27  1  0  0  0
 15 72  1  0  0  0
 16 27  1  0  0  0
 16 73  1  0  0  0
 17 28  1  0  0  0
 17 29  1  0  0  0
 17 74  1  0  0  0
 17 75  1  0  0  0
 18 25  2  0  0  0
 19 20  1  0  0  0
 19 57  1  0  0  0
 19 76  1  0  0  0
 19 77  1  0  0  0
 20 78  1  0  0  0
 20 79  1  0  0  0
 21 24  2  0  0  0
 22 80  1  0  0  0
 23 24  1  0  0  0
 23 81  1  0  0  0
 24 61  1  0  0  0
 25 30  1  0  0  0
 25 82  1  0  0  0
 26 52  1  0  0  0
 26 83  1  0  0  0
 28 53  1  0  0  0
 28 84  1  0  0  0
 28 85  1  0  0  0
 29 31  1  0  0  0
 29 33  1  0  0  0
 29 35  1  0  0  0
 30 62  1  0  0  0
 31 32  1  0  0  0
 31 86  1  0  0  0
 31 87  1  0  0  0
 32 53  1  0  0  0
 32 88  1  0  0  0
 32 89  1  0  0  0
 33 34  1  0  0  0
 33 90  1  0  0  0
 33 91  1  0  0  0
 34 35  1  0  0  0
 34 54  1  0  0  0
 34 92  1  0  0  0
 35 93  1  0  0  0
 35 94  1  0  0  0
 36 37  1  0  0  0
 36 54  1  0  0  0
 36 95  1  0  0  0
 36 96  1  0  0  0
 37 38  1  0  0  0
 37 97  1  0  0  0
 37 98  1  0  0  0
 38 39  1  0  0  0
 38 99  1  0  0  0
 38100  1  0  0  0
 39 40  1  0  0  0
 39 54  1  0  0  0
 39101  1  0  0  0
 40 41  1  0  0  0
 40 45  2  0  0  0
 41 42  2  0  0  0
 41102  1  0  0  0
 42 43  1  0  0  0
 42103  1  0  0  0
 43 44  2  0  0  0
 43104  1  0  0  0
 44 45  1  0  0  0
 44105  1  0  0  0
 45 46  1  0  0  0
 46 47  1  0  0  0
 46 48  1  0  0  0
 46106  1  0  0  0
 47 48  1  0  0  0
 47107  1  0  0  0
 47108  1  0  0  0
 48109  1  0  0  0
 48110  1  0  0  0
 49111  1  0  0  0
 49112  1  0  0  0
 50113  1  0  0  0
 52114  1  0  0  0
 54115  1  0  0  0
 58 62  2  0  0  0
 59 62  2  0  0  0
M  CHG  4   1   1  54   1  55  -1  60  -1
M  END
> <i_m_stars>
0

> <s_m_entry_id>
5

> <s_m_entry_name>
Structure5

> <s_pdb_PDB_TITLE>
CRYSTAL STRUCTURE OF BCL2 IN COMPLEX WITH S-10R

> <s_pdb_PDB_ID>
8HTS

> <r_pdb_PDB_CRYST1_a>
46.304

> <r_pdb_PDB_CRYST1_b>
55.151

> <r_pdb_PDB_CRYST1_c>
61.488

> <r_pdb_PDB_CRYST1_alpha>
90

> <r_pdb_PDB_CRYST1_beta>
90

> <r_pdb_PDB_CRYST1_gamma>
90

> <s_pdb_PDB_CRYST1_Space_Group>
P 21 21 21

> <i_pdb_PDB_CRYST1_z>
4

> <s_pdb_PDB_CLASSIFICATION>
APOPTOSIS

> <s_pdb_PDB_DEPOSITION_DATE>
21-DEC-22

> <s_pdb_PDB_format_version>
3.30

> <r_pdb_PDB_R>
0.166999995708466

> <r_pdb_PDB_Rfree>
0.189999997615814

> <r_pdb_PDB_RESOLUTION>
1.25

> <s_pdb_PDB_EXPDTA>
X-RAY DIFFRACTION

> <r_pdb_PDB_EXPDTA_TEMPERATURE>
100

> <s_pdb_PDB_REMARK_350_Biomolecule_1_Chains>
A

> <s_pdb_PDB_REMARK_350_Biomolecule_1_Transformation_1>
1.000000 0.000000 0.000000   0.000000;0.000000 1.000000 0.000000   0.000000;0.000000 0.000000 1.000000   0.000000

> <s_m_Source_Path>
D:\Research\Benchmark_Tarpass\Targets\BCL2

> <s_m_Source_File>
8hts.pdb

> <i_m_Source_File_Index>
1

> <s_ppw_entry_id_backup>
3

> <b_ppw_prepared>
1

> <s_ppw_prepared_with_version>
2018-1

> <b_ppw_assigned_bond_orders>
1

> <b_ppw_added_hydrogens>
1

> <b_ppw_treated_metals>
1

> <b_ppw_created_disulfur>
1

> <b_ppw_deleted_far_waters>
1

> <b_ppw_ran_protassign>
1

> <b_ppw_removed_non_hbond_waters>
1

$$$$
