SIP
                    3D
 Structure written by MMmdl.
 56 59  0  0  1  0            999 V2000
  -93.9950  -21.8010  211.0520 C   0  0  0  0  0  0
  -92.9570  -21.2480  212.0430 C   0  0  0  0  0  0
  -92.3220  -23.4700  212.7670 C   0  0  0  0  0  0
  -93.4040  -24.0960  211.9160 C   0  0  0  0  0  0
  -93.6970  -23.2660  210.6670 C   0  0  2  0  0  0
  -92.4590  -23.2790  209.7150 C   0  0  0  0  0  0
  -94.1150  -24.5410  208.7220 C   0  0  0  0  0  0
  -96.0860  -24.2260  210.2880 C   0  0  0  0  0  0
  -96.6200  -25.4470  209.9300 C   0  0  0  0  0  0
  -97.8980  -25.7860  210.3260 C   0  0  0  0  0  0
  -98.6410  -24.9010  211.0800 C   0  0  0  0  0  0
  -98.1100  -23.6830  211.4400 C   0  0  0  0  0  0
  -96.8370  -23.3430  211.0430 C   0  0  0  0  0  0
  -91.5830  -21.6020  213.9590 C   0  0  0  0  0  0
  -92.0380  -20.2410  214.4260 C   0  0  0  0  0  0
  -91.5720  -19.9860  215.8270 C   0  0  0  0  0  0
  -91.8230  -18.5930  216.3460 C   0  0  0  0  0  0
  -91.0020  -18.1170  217.4970 C   0  0  0  0  0  0
  -90.0640  -18.9540  218.0660 C   0  0  0  0  0  0
  -89.2970  -18.5500  219.1370 C   0  0  0  0  0  0
  -89.4850  -17.2810  219.6460 C   0  0  0  0  0  0
  -90.4210  -16.4280  219.0990 C   0  0  0  0  0  0
  -91.1710  -16.8610  218.0280 C   0  0  0  0  0  0
  -88.7380  -16.8630  220.7020 F   0  0  0  0  0  0
  -92.7030  -22.1320  213.2090 N   0  3  1  0  0  0
  -92.7580  -24.0100  208.6510 N   0  0  0  0  0  0
  -94.7930  -23.9060  209.8720 N   0  0  0  0  0  0
  -91.3870  -22.7140  209.8990 O   0  0  0  0  0  0
  -92.6780  -17.8870  215.8560 O   0  0  0  0  0  0
  -94.0028  -21.1843  210.1533 H   0  0  0  0  0  0
  -94.9890  -21.7374  211.4948 H   0  0  0  0  0  0
  -93.2801  -20.2686  212.3957 H   0  0  0  0  0  0
  -92.0195  -21.0631  211.5187 H   0  0  0  0  0  0
  -91.3969  -23.4129  212.1934 H   0  0  0  0  0  0
  -92.1346  -24.0998  213.6367 H   0  0  0  0  0  0
  -94.3152  -24.1983  212.5054 H   0  0  0  0  0  0
  -93.0980  -25.0997  211.6209 H   0  0  0  0  0  0
  -94.0751  -25.6195  208.8746 H   0  0  0  0  0  0
  -94.6495  -24.2948  207.8045 H   0  0  0  0  0  0
  -96.0378  -26.1387  209.3392 H   0  0  0  0  0  0
  -98.3144  -26.7422  210.0456 H   0  0  0  0  0  0
  -99.6420  -25.1631  211.3894 H   0  0  0  0  0  0
  -98.6925  -22.9943  212.0340 H   0  0  0  0  0  0
  -96.4245  -22.3847  211.3220 H   0  0  0  0  0  0
  -91.3951  -22.2369  214.8248 H   0  0  0  0  0  0
  -90.7254  -21.4884  213.2959 H   0  0  0  0  0  0
  -93.1262  -20.1901  214.3905 H   0  0  0  0  0  0
  -91.6329  -19.4758  213.7638 H   0  0  0  0  0  0
  -90.5080  -20.2112  215.8994 H   0  0  0  0  0  0
  -92.0352  -20.7094  216.4980 H   0  0  0  0  0  0
  -89.9188  -19.9492  217.6723 H   0  0  0  0  0  0
  -88.5659  -19.2220  219.5617 H   0  0  0  0  0  0
  -90.5561  -15.4388  219.5109 H   0  0  0  0  0  0
  -91.9043  -16.1902  217.6052 H   0  0  0  0  0  0
  -93.5239  -22.1794  213.7956 H   0  0  0  0  0  0
  -92.0746  -24.1388  207.9185 H   0  0  0  0  0  0
  1  2  1  0  0  0
  1  5  1  0  0  0
  1 30  1  0  0  0
  1 31  1  0  0  0
  2 25  1  0  0  0
  2 32  1  0  0  0
  2 33  1  0  0  0
  3  4  1  0  0  0
  3 25  1  0  0  0
  3 34  1  0  0  0
  3 35  1  0  0  0
  4  5  1  0  0  0
  4 36  1  0  0  0
  4 37  1  0  0  0
  5  6  1  0  0  0
  5 27  1  0  0  0
  6 26  1  0  0  0
  6 28  2  0  0  0
  7 26  1  0  0  0
  7 27  1  0  0  0
  7 38  1  0  0  0
  7 39  1  0  0  0
  8  9  1  0  0  0
  8 13  2  0  0  0
  8 27  1  0  0  0
  9 10  2  0  0  0
  9 40  1  0  0  0
 10 11  1  0  0  0
 10 41  1  0  0  0
 11 12  2  0  0  0
 11 42  1  0  0  0
 12 13  1  0  0  0
 12 43  1  0  0  0
 13 44  1  0  0  0
 14 15  1  0  0  0
 14 25  1  0  0  0
 14 45  1  0  0  0
 14 46  1  0  0  0
 15 16  1  0  0  0
 15 47  1  0  0  0
 15 48  1  0  0  0
 16 17  1  0  0  0
 16 49  1  0  0  0
 16 50  1  0  0  0
 17 18  1  0  0  0
 17 29  2  0  0  0
 18 19  1  0  0  0
 18 23  2  0  0  0
 19 20  2  0  0  0
 19 51  1  0  0  0
 20 21  1  0  0  0
 20 52  1  0  0  0
 21 22  2  0  0  0
 21 24  1  0  0  0
 22 23  1  0  0  0
 22 53  1  0  0  0
 23 54  1  0  0  0
 25 55  1  0  0  0
 26 56  1  0  0  0
M  CHG  1  25   1
M  END
> <i_m_stars>
0

> <s_m_entry_id>
25

> <s_m_entry_name>
Structure25

> <s_pdb_PDB_TITLE>
HUMAN DOPAMINE D2 RECEPTOR IN COMPLEX WITH SPIPERONE

> <s_pdb_PDB_ID>
7DFP

> <r_pdb_PDB_CRYST1_a>
161.9

> <r_pdb_PDB_CRYST1_b>
40.5

> <r_pdb_PDB_CRYST1_c>
165.9

> <r_pdb_PDB_CRYST1_alpha>
90

> <r_pdb_PDB_CRYST1_beta>
116.5

> <r_pdb_PDB_CRYST1_gamma>
90

> <s_pdb_PDB_CRYST1_Space_Group>
C 1 2 1

> <i_pdb_PDB_CRYST1_z>
4

> <s_pdb_PDB_CLASSIFICATION>
MEMBRANE PROTEIN

> <s_pdb_PDB_DEPOSITION_DATE>
09-NOV-20

> <s_pdb_PDB_format_version>
3.30

> <r_pdb_PDB_R>
0.185000002384186

> <r_pdb_PDB_Rfree>
0.216999992728233

> <r_pdb_PDB_RESOLUTION>
3.1

> <s_pdb_PDB_EXPDTA>
X-RAY DIFFRACTION

> <r_pdb_PDB_EXPDTA_TEMPERATURE>
293

> <r_pdb_PDB_EXPDTA_PH>
8

> <s_pdb_PDB_REMARK_350_Biomolecule_1_Chains>
A, B, C

> <s_pdb_PDB_REMARK_350_Biomolecule_1_Transformation_1>
1.000000 0.000000 0.000000   0.000000;0.000000 1.000000 0.000000   0.000000;0.000000 0.000000 1.000000   0.000000

> <s_m_Source_Path>
D:\Research\Benchmark_Tarpass\Targets\DRD2

> <s_m_Source_File>
7dfp.pdb

> <i_m_Source_File_Index>
1

> <s_ppw_entry_id_backup>
23

> <b_ppw_prepared>
1

> <s_ppw_prepared_with_version>
2018-1

> <b_ppw_assigned_bond_orders>
1

> <b_ppw_added_hydrogens>
1

> <b_ppw_treated_metals>
1

> <b_ppw_created_disulfur>
1

> <b_ppw_deleted_far_waters>
1

> <i_psp_model_num>
0

> <r_psp_Prime_Coulomb>
-7527.00189862143

> <r_psp_Prime_Covalent>
1213.29888950855

> <r_psp_Prime_vdW>
855.228811916084

> <r_psp_Prime_Solv_GB>
-867.131793841587

> <r_psp_Prime_Lipo>
-711.99507819718

> <r_psp_Prime_Energy>
-7223.66090524951

> <s_psp_Prime_Energy_Force_Field>
OPLS3

> <s_psp_Prime_Energy_Solvent_Model>
VSGB2.1

> <r_psp_Prime_Hbond>
-138.865449680037

> <r_psp_Prime_Packing>
-23.8891088501472

> <r_psp_Prime_SelfCont>
-23.3052774837679

> <b_ppw_ran_protassign>
1

> <b_ppw_removed_non_hbond_waters>
1

$$$$
