7PPE
                    3D
 Structure written by MMmdl.
 59 63  0  0  1  0            999 V2000
   17.7920    2.7400   -3.4610 C   0  0  0  0  0  0
   19.0580    1.9880   -3.8320 C   0  0  0  0  0  0
   19.7200    2.8560   -4.7970 O   0  0  0  0  0  0
   18.9880    3.0800   -6.0700 C   0  0  0  0  0  0
   17.5380    3.5690   -5.8390 C   0  0  0  0  0  0
   16.8610    2.8140   -4.6600 C   0  0  0  0  0  0
   15.5790    3.4910   -4.3390 N   0  0  0  0  0  0
   15.5850    4.4900   -3.4350 N   0  0  0  0  0  0
   14.4540    3.1620   -5.0120 C   0  0  0  0  0  0
   14.5190    2.2640   -5.8550 O   0  0  0  0  0  0
   13.2440    3.8590   -4.8590 C   0  0  0  0  0  0
   13.2180    4.8310   -3.6800 C   0  0  1  0  0  0
   12.5330    4.0240   -2.5570 C   0  0  0  0  0  0
   14.4820    5.2030   -3.1230 C   0  0  0  0  0  0
   14.6260    6.1780   -2.0960 C   0  0  0  0  0  0
   13.6840    7.1720   -1.8570 C   0  0  0  0  0  0
   13.8560    8.1260   -0.8500 C   0  0  0  0  0  0
   15.7430    6.1620   -1.2840 C   0  0  0  0  0  0
   15.9130    7.0900   -0.2690 C   0  0  0  0  0  0
   15.0050    8.1360   -0.0700 C   0  0  0  0  0  0
   15.2170    8.9190    0.9910 N   0  0  0  0  0  0
   14.3050    9.8200    1.4970 C   0  0  0  0  0  0
   13.3010   10.2400    0.9040 O   0  0  0  0  0  0
   14.6320   10.2960    2.7060 N   0  0  0  0  0  0
   15.6890    9.8650    3.6390 C   0  0  0  0  0  0
   15.1300   10.1450    4.9700 C   0  0  0  0  0  0
   15.5290    9.7400    6.1860 C   0  0  0  0  0  0
   14.9160   10.1400    7.3900 C   0  0  0  0  0  0
   13.7600   10.9640    7.3260 N   0  0  0  0  0  0
   13.3790   11.3480    6.0240 C   0  0  0  0  0  0
   14.0510   10.9790    4.8920 C   0  0  0  0  0  0
   13.8600   11.2270    3.5310 C   0  0  0  0  0  0
   18.0490    3.7480   -3.1380 H   0  0  0  0  0  0
   17.2900    2.2230   -2.6430 H   0  0  0  0  0  0
   18.7920    1.0480   -4.3160 H   0  0  0  0  0  0
   19.6890    1.8850   -2.9490 H   0  0  0  0  0  0
   18.9710    2.1550   -6.6460 H   0  0  0  0  0  0
   19.5250    3.8110   -6.6730 H   0  0  0  0  0  0
   16.9550    3.4190   -6.7480 H   0  0  0  0  0  0
   17.5450    4.6390   -5.6290 H   0  0  0  0  0  0
   16.6400    1.7980   -4.9850 H   0  0  0  0  0  0
   12.4270    3.1450   -4.7570 H   0  0  0  0  0  0
   13.0210    4.4010   -5.7780 H   0  0  0  0  0  0
   12.6320    5.7160   -3.9260 H   0  0  0  0  0  0
   12.4650    4.6370   -1.6580 H   0  0  0  0  0  0
   11.5320    3.7340   -2.8760 H   0  0  0  0  0  0
   13.1190    3.1300   -2.3430 H   0  0  0  0  0  0
   12.7880    7.2230   -2.4580 H   0  0  0  0  0  0
   13.0900    8.8670   -0.6720 H   0  0  0  0  0  0
   16.5080    5.4140   -1.4340 H   0  0  0  0  0  0
   16.7630    7.0170    0.3940 H   0  0  0  0  0  0
   16.0980    8.8760    1.4830 H   0  0  0  0  0  0
   16.5770   10.4780    3.4850 H   0  0  0  0  0  0
   15.8490    8.7920    3.5330 H   0  0  0  0  0  0
   16.3680    9.0670    6.2830 H   0  0  0  0  0  0
   15.3250    9.8210    8.3370 H   0  0  0  0  0  0
   12.5080   11.9700    5.8780 H   0  0  0  0  0  0
   12.8010   11.1330    3.2900 H   0  0  0  0  0  0
   14.1620   12.2490    3.3030 H   0  0  0  0  0  0
  1  2  1  0  0  0
  1  6  1  0  0  0
  1 33  1  0  0  0
  1 34  1  0  0  0
  2  3  1  0  0  0
  2 35  1  0  0  0
  2 36  1  0  0  0
  3  4  1  0  0  0
  4  5  1  0  0  0
  4 37  1  0  0  0
  4 38  1  0  0  0
  5  6  1  0  0  0
  5 39  1  0  0  0
  5 40  1  0  0  0
  6  7  1  0  0  0
  6 41  1  0  0  0
  7  8  1  0  0  0
  7  9  1  0  0  0
  8 14  2  0  0  0
  9 10  2  0  0  0
  9 11  1  0  0  0
 11 12  1  0  0  0
 11 42  1  0  0  0
 11 43  1  0  0  0
 12 13  1  0  0  0
 12 14  1  0  0  0
 12 44  1  0  0  0
 13 45  1  0  0  0
 13 46  1  0  0  0
 13 47  1  0  0  0
 14 15  1  0  0  0
 15 16  1  0  0  0
 15 18  2  0  0  0
 16 17  2  0  0  0
 16 48  1  0  0  0
 17 20  1  0  0  0
 17 49  1  0  0  0
 18 19  1  0  0  0
 18 50  1  0  0  0
 19 20  2  0  0  0
 19 51  1  0  0  0
 20 21  1  0  0  0
 21 22  1  0  0  0
 21 52  1  0  0  0
 22 23  2  0  0  0
 22 24  1  0  0  0
 24 25  1  0  0  0
 24 32  1  0  0  0
 25 26  1  0  0  0
 25 53  1  0  0  0
 25 54  1  0  0  0
 26 27  1  0  0  0
 26 31  2  0  0  0
 27 28  2  0  0  0
 27 55  1  0  0  0
 28 29  1  0  0  0
 28 56  1  0  0  0
 29 30  2  0  0  0
 30 31  1  0  0  0
 30 57  1  0  0  0
 31 32  1  0  0  0
 32 58  1  0  0  0
 32 59  1  0  0  0
M  END
> <s_m_entry_id>
1

> <s_m_entry_name>
NAMPT_7ppe_ligand_A.1

> <s_pdb_PDB_TITLE>
CRYSTAL STRUCTURE OF NAMPT IN COMPLEX WITH COMPOUND 1

> <s_pdb_PDB_ID>
7PPE

> <i_pdb_PDB_Model>
1

> <r_pdb_PDB_CRYST1_a>
60.823

> <r_pdb_PDB_CRYST1_b>
106.771

> <r_pdb_PDB_CRYST1_c>
82.625

> <r_pdb_PDB_CRYST1_alpha>
90

> <r_pdb_PDB_CRYST1_beta>
96.35

> <r_pdb_PDB_CRYST1_gamma>
90

> <s_pdb_PDB_CRYST1_Space_Group>
P 1 21 1

> <i_pdb_PDB_CRYST1_z>
4

> <s_pdb_PDB_CLASSIFICATION>
TRANSFERASE

> <s_pdb_PDB_DEPOSITION_DATE>
13-SEP-21

> <s_pdb_PDB_format_version>
3.30

> <r_pdb_PDB_RESOLUTION>
1.86

> <s_pdb_PDB_EXPDTA>
X-RAY DIFFRACTION

> <r_pdb_PDB_EXPDTA_TEMPERATURE>
100

> <r_pdb_PDB_EXPDTA_PH>
7.6

> <s_pdb_PDB_REMARK_350_Biomolecule_1_Chains>
A, B

> <s_pdb_PDB_REMARK_350_Biomolecule_1_Transformation_1>
1.000000 0.000000 0.000000   0.000000;0.000000 1.000000 0.000000   0.000000;0.000000 0.000000 1.000000   0.000000

> <s_m_Source_Path>
D:\Research\Benchmark_Tarpass\Targets\NAMPT

> <s_m_Source_File>
NAMPT_7ppe_ligand_A.pdb

> <i_m_Source_File_Index>
1

$$$$
