Y7W
                    3D
 Structure written by MMmdl.
 55 57  0  0  1  0            999 V2000
  -21.3110    1.7050    1.0870 N   0  0  0  0  0  0
  -22.9450    3.4790    1.1930 C   0  0  0  0  0  0
  -23.9450    3.0560    0.2700 C   0  0  0  0  0  0
  -24.1870    1.7390   -0.3440 C   0  0  0  0  0  0
  -24.2880    0.5880    0.4330 C   0  0  0  0  0  0
  -24.5530   -0.6410   -0.1540 C   0  0  0  0  0  0
  -25.0230   -2.0950   -2.1470 C   0  0  0  0  0  0
  -23.8740   -3.0770   -5.6180 C   0  0  0  0  0  0
  -23.7270   -3.9020   -7.8440 C   0  0  0  0  0  0
  -22.3690   -3.8160   -7.8590 C   0  0  0  0  0  0
  -20.5000   -2.2460   -4.4760 C   0  0  0  0  0  0
  -24.3250    1.6210   -1.7230 C   0  0  0  0  0  0
  -25.3980    6.8300   -0.5830 C   0  0  0  0  0  0
  -21.1150    3.3110    2.6460 O   0  0  0  0  0  0
  -21.7510    2.8000    1.7130 C   0  0  0  0  0  0
  -24.7120   -0.7550   -1.5230 C   0  0  0  0  0  0
  -24.2380   -2.3430   -3.3490 N   0  0  0  0  0  0
  -24.8000   -2.7670   -4.4850 C   0  0  0  0  0  0
  -24.5050   -3.5590   -6.7690 C   0  0  0  0  0  0
  -24.3520   -4.3740   -8.9490 F   0  0  0  0  0  0
  -21.7330   -3.3430   -6.7260 C   0  0  0  0  0  0
  -22.4780   -2.9760   -5.6160 C   0  0  0  0  0  0
  -21.9090   -2.4750   -4.4770 O   0  0  0  0  0  0
  -26.0260   -2.9170   -4.6090 O   0  0  0  0  0  0
  -24.5820    0.3900   -2.3010 C   0  0  0  0  0  0
  -24.8360    4.0210    0.0660 N   0  0  0  0  0  0
  -24.4370    5.0710    0.8540 N   0  0  0  0  0  0
  -25.1770    6.2960    0.8250 C   0  0  2  0  0  0
  -26.4810    6.1450    1.5740 C   0  0  0  0  0  0
  -26.2760    5.5940    2.7740 F   0  0  0  0  0  0
  -27.0690    7.3240    1.7840 F   0  0  0  0  0  0
  -27.3600    5.3670    0.9260 F   0  0  0  0  0  0
  -23.3210    4.7830    1.5530 C   0  0  0  0  0  0
  -22.6670    5.6730    2.3630 N   0  0  0  0  0  0
  -20.4917    1.2230    1.4283 H   0  0  0  0  0  0
  -21.7977    1.3591    0.2724 H   0  0  0  0  0  0
  -24.1597    0.6463    1.5038 H   0  0  0  0  0  0
  -24.6378   -1.5256    0.4598 H   0  0  0  0  0  0
  -26.0843   -2.1436   -2.3908 H   0  0  0  0  0  0
  -24.8335   -2.8856   -1.4209 H   0  0  0  0  0  0
  -21.8188   -4.1131   -8.7396 H   0  0  0  0  0  0
  -20.1966   -1.8492   -3.5072 H   0  0  0  0  0  0
  -19.9787   -3.1848   -4.6629 H   0  0  0  0  0  0
  -20.2474   -1.5289   -5.2571 H   0  0  0  0  0  0
  -24.2317    2.4942   -2.3517 H   0  0  0  0  0  0
  -25.9648    7.7598   -0.5347 H   0  0  0  0  0  0
  -24.4343    7.0168   -1.0567 H   0  0  0  0  0  0
  -25.9534    6.0964   -1.1673 H   0  0  0  0  0  0
  -23.2413   -2.1853   -3.3068 H   0  0  0  0  0  0
  -25.5805   -3.6534   -6.7959 H   0  0  0  0  0  0
  -20.6564   -3.2596   -6.7061 H   0  0  0  0  0  0
  -24.6848    0.3077   -3.3729 H   0  0  0  0  0  0
  -24.5856    7.0394    1.3596 H   0  0  0  0  0  0
  -23.0630    6.5864    2.5330 H   0  0  0  0  0  0
  -21.7887    5.4159    2.7903 H   0  0  0  0  0  0
  1 15  1  0  0  0
  1 35  1  0  0  0
  1 36  1  0  0  0
  2  3  1  0  0  0
  2 15  1  0  0  0
  2 33  2  0  0  0
  3  4  1  0  0  0
  3 26  2  0  0  0
  4  5  1  0  0  0
  4 12  2  0  0  0
  5  6  2  0  0  0
  5 37  1  0  0  0
  6 16  1  0  0  0
  6 38  1  0  0  0
  7 16  1  0  0  0
  7 17  1  0  0  0
  7 39  1  0  0  0
  7 40  1  0  0  0
  8 18  1  0  0  0
  8 19  1  0  0  0
  8 22  2  0  0  0
  9 10  1  0  0  0
  9 19  2  0  0  0
  9 20  1  0  0  0
 10 21  2  0  0  0
 10 41  1  0  0  0
 11 23  1  0  0  0
 11 42  1  0  0  0
 11 43  1  0  0  0
 11 44  1  0  0  0
 12 25  1  0  0  0
 12 45  1  0  0  0
 13 28  1  0  0  0
 13 46  1  0  0  0
 13 47  1  0  0  0
 13 48  1  0  0  0
 14 15  2  0  0  0
 16 25  2  0  0  0
 17 18  1  0  0  0
 17 49  1  0  0  0
 18 24  2  0  0  0
 19 50  1  0  0  0
 21 22  1  0  0  0
 21 51  1  0  0  0
 22 23  1  0  0  0
 25 52  1  0  0  0
 26 27  1  0  0  0
 27 28  1  0  0  0
 27 33  1  0  0  0
 28 29  1  0  0  0
 28 53  1  0  0  0
 29 30  1  0  0  0
 29 31  1  0  0  0
 29 32  1  0  0  0
 33 34  1  0  0  0
 34 54  1  0  0  0
 34 55  1  0  0  0
M  END
> <i_m_stars>
0

> <s_m_entry_id>
56

> <s_m_entry_name>
Structure56

> <s_pdb_PDB_TITLE>
CRYSTAL STRUCTURE OF BTK KINASE DOMAIN IN COMPLEX WITH PIRTOBRUTINIB

> <s_pdb_PDB_ID>
8FLL

> <r_pdb_PDB_CRYST1_a>
41.482

> <r_pdb_PDB_CRYST1_b>
67.269

> <r_pdb_PDB_CRYST1_c>
90.383

> <r_pdb_PDB_CRYST1_alpha>
90

> <r_pdb_PDB_CRYST1_beta>
90

> <r_pdb_PDB_CRYST1_gamma>
90

> <s_pdb_PDB_CRYST1_Space_Group>
P 21 21 21

> <i_pdb_PDB_CRYST1_z>
4

> <s_pdb_PDB_CLASSIFICATION>
TRANSFERASE/INHIBITOR

> <s_pdb_PDB_DEPOSITION_DATE>
21-DEC-22

> <s_pdb_PDB_format_version>
3.30

> <r_pdb_PDB_R>
0.185000002384186

> <r_pdb_PDB_Rfree>
0.202000007033348

> <r_pdb_PDB_RESOLUTION>
1.5

> <s_pdb_PDB_EXPDTA>
X-RAY DIFFRACTION

> <r_pdb_PDB_EXPDTA_TEMPERATURE>
100

> <r_pdb_PDB_EXPDTA_PH>
5.5

> <s_pdb_PDB_REMARK_350_Biomolecule_1_Chains>
A

> <s_pdb_PDB_REMARK_350_Biomolecule_1_Transformation_1>
1.000000 0.000000 0.000000   0.000000;0.000000 1.000000 0.000000   0.000000;0.000000 0.000000 1.000000   0.000000

> <s_m_Source_Path>
D:\Research\Benchmark_Tarpass\Targets\BTK

> <s_m_Source_File>
8fll.pdb

> <i_m_Source_File_Index>
1

> <s_ppw_entry_id_backup>
54

> <b_ppw_prepared>
1

> <s_ppw_prepared_with_version>
2018-1

> <b_ppw_assigned_bond_orders>
1

> <b_ppw_added_hydrogens>
1

> <b_ppw_treated_metals>
1

> <b_ppw_created_disulfur>
1

> <b_ppw_deleted_far_waters>
1

> <i_psp_model_num>
0

> <r_psp_Prime_Coulomb>
-8051.4377234997

> <r_psp_Prime_Covalent>
1699.53545617829

> <r_psp_Prime_vdW>
-252.978619725618

> <r_psp_Prime_Solv_GB>
-1940.82096372461

> <r_psp_Prime_Lipo>
-719.951334627006

> <r_psp_Prime_Energy>
-9492.96491354889

> <s_psp_Prime_Energy_Force_Field>
OPLS3

> <s_psp_Prime_Energy_Solvent_Model>
VSGB2.1

> <r_psp_Prime_Hbond>
-176.945643455411

> <r_psp_Prime_Packing>
-22.3544001530121

> <r_psp_Prime_SelfCont>
-28.0116845418313

> <b_ppw_ran_protassign>
1

> <b_ppw_removed_non_hbond_waters>
1

$$$$
