7QJ
                    3D
 Schrodinger Suite 2021-2.
 44 46  0  0  1  0            999 V2000
   18.2340    2.0830   22.5680 C   0  0  0  0  0  0
   19.5690    9.4300   25.9350 C   0  0  0  0  0  0
   19.5330    8.2410   26.8410 C   0  0  0  0  0  0
   18.7240    0.7930   22.8460 C   0  0  0  0  0  0
   18.8870    4.7250   26.4790 C   0  0  0  0  0  0
   19.8000    6.9440   26.1230 C   0  0  0  0  0  0
   18.2560    3.9570   27.3480 N   0  0  0  0  0  0
   17.7290    2.5440   25.4430 C   0  0  0  0  0  0
   17.6730    2.8910   26.7960 C   0  0  0  0  0  0
   16.9460    2.0140   27.7740 C   0  0  0  0  0  0
   20.4900    9.6700   25.1990 O   0  0  0  0  0  0
   18.5030   10.1790   26.0330 O   0  5  0  0  0  0
   19.1750    5.9440   26.9250 O   0  0  0  0  0  0
   16.4440    0.9190   27.1870 F   0  0  0  0  0  0
   15.9300    2.6490   28.3730 F   0  0  0  0  0  0
   17.7420    1.6220   28.7560 F   0  0  0  0  0  0
   19.0930    4.5090   25.1940 N   0  0  0  0  0  0
   18.5140    3.4210   24.6770 C   0  0  0  0  0  0
   18.7520    3.2080   23.3000 N   0  0  0  0  0  0
   19.1580    4.3570   22.4830 C   0  0  0  0  0  0
   17.3620    2.3010   21.4940 C   0  0  0  0  0  0
   17.0310    1.2460   20.6640 C   0  0  0  0  0  0
   17.5510   -0.0140   20.9000 C   0  0  0  0  0  0
   18.3730   -0.2440   21.9940 C   0  0  0  0  0  0
   18.9480   -1.5430   22.4940 C   0  0  0  0  0  0
   19.3610   -1.2260   23.9280 C   0  0  0  0  0  0
   19.5620    0.2820   23.9940 C   0  0  0  0  0  0
   18.5614    8.1895   27.3323 H   0  0  0  0  0  0
   20.2651    8.3709   27.6381 H   0  0  0  0  0  0
   20.8744    6.7628   26.0917 H   0  0  0  0  0  0
   19.3252    6.9695   25.1422 H   0  0  0  0  0  0
   17.1976    1.6741   25.0862 H   0  0  0  0  0  0
   19.5333    5.1494   23.1305 H   0  0  0  0  0  0
   19.9428    4.0520   21.7907 H   0  0  0  0  0  0
   18.3001    4.7244   21.9199 H   0  0  0  0  0  0
   16.9548    3.2861   21.3204 H   0  0  0  0  0  0
   16.3649    1.4044   19.8288 H   0  0  0  0  0  0
   17.3181   -0.8285   20.2301 H   0  0  0  0  0  0
   19.8343   -1.7929   21.9107 H   0  0  0  0  0  0
   18.1665   -2.3028   22.5038 H   0  0  0  0  0  0
   20.3024   -1.7272   24.1531 H   0  0  0  0  0  0
   18.5596   -1.5148   24.6081 H   0  0  0  0  0  0
   19.1547    0.6586   24.9323 H   0  0  0  0  0  0
   20.6102    0.5139   23.8054 H   0  0  0  0  0  0
  1  4  1  0  0  0
  1 19  1  0  0  0
  1 21  2  0  0  0
  2  3  1  0  0  0
  2 11  2  0  0  0
  2 12  1  0  0  0
  3  6  1  0  0  0
  3 28  1  0  0  0
  3 29  1  0  0  0
  4 24  2  0  0  0
  4 27  1  0  0  0
  5  7  1  0  0  0
  5 13  1  0  0  0
  5 17  2  0  0  0
  6 13  1  0  0  0
  6 30  1  0  0  0
  6 31  1  0  0  0
  7  9  2  0  0  0
  8  9  1  0  0  0
  8 18  2  0  0  0
  8 32  1  0  0  0
  9 10  1  0  0  0
 10 14  1  0  0  0
 10 15  1  0  0  0
 10 16  1  0  0  0
 17 18  1  0  0  0
 18 19  1  0  0  0
 19 20  1  0  0  0
 20 33  1  0  0  0
 20 34  1  0  0  0
 20 35  1  0  0  0
 21 22  1  0  0  0
 21 36  1  0  0  0
 22 23  2  0  0  0
 22 37  1  0  0  0
 23 24  1  0  0  0
 23 38  1  0  0  0
 24 25  1  0  0  0
 25 26  1  0  0  0
 25 39  1  0  0  0
 25 40  1  0  0  0
 26 27  1  0  0  0
 26 41  1  0  0  0
 26 42  1  0  0  0
 27 43  1  0  0  0
 27 44  1  0  0  0
M  CHG  1  12  -1
M  END
> <i_m_stars>
0

> <s_m_entry_id>
18

> <s_m_entry_name>
Structure18

> <s_pdb_PDB_TITLE>
CRYSTAL STRUCTURE OF RETINOIC ACID RECEPTOR ALPHA (RXRA) IN COMPLEXED WITH JP147

> <s_pdb_PDB_ID>
8PP0

> <r_pdb_PDB_CRYST1_a>
65.648

> <r_pdb_PDB_CRYST1_b>
65.648

> <r_pdb_PDB_CRYST1_c>
110.816

> <r_pdb_PDB_CRYST1_alpha>
90

> <r_pdb_PDB_CRYST1_beta>
90

> <r_pdb_PDB_CRYST1_gamma>
90

> <s_pdb_PDB_CRYST1_Space_Group>
P 43 21 2

> <i_pdb_PDB_CRYST1_z>
8

> <s_pdb_PDB_CLASSIFICATION>
DNA BINDING PROTEIN

> <s_pdb_PDB_DEPOSITION_DATE>
05-JUL-23

> <s_pdb_PDB_format_version>
3.30

> <r_pdb_PDB_R>
0.18

> <r_pdb_PDB_Rfree>
0.223

> <r_pdb_PDB_RESOLUTION>
1.9

> <s_pdb_PDB_EXPDTA>
X-RAY DIFFRACTION

> <r_pdb_PDB_EXPDTA_TEMPERATURE>
100

> <s_pdb_PDB_REMARK_350_Biomolecule_1_Transform_1_Chains>
A, B

> <s_pdb_PDB_REMARK_350_Biomolecule_1_Transform_1_Matrix_1>
1.000000 0.000000 0.000000   0.000000;0.000000 1.000000 0.000000   0.000000;0.000000 0.000000 1.000000   0.000000

> <s_m_Source_Path>
/home/sorui/Research/Tarpass/Targets/RXR-alpha

> <s_m_Source_File>
8pp0.pdb

> <i_m_Source_File_Index>
1

> <s_ppw_entry_id_backup>
16

> <b_ppw_prepared>
1

> <s_ppw_prepared_with_version>
2021-2

> <b_ppw_assigned_bond_orders>
1

> <b_ppw_added_hydrogens>
1

> <b_ppw_treated_metals>
1

> <b_ppw_created_disulfur>
1

> <s_ppw_het_states>
eJxdk71ug0AQhF9ldTU4t3fm5+zOVdooZUSBHFch4IIUkeV3990uMIAL9DEsN8uM/DBsTvQVf1zWx4xsk1HCAlgCK2ANDAsGC2SgA3og3EJ0y3li2AXYBdiFxa6yFshAB/TAI7AAlsAKWAPhxuKWeMpKA5n2FkG8t0K8OmSqcfJaCPuJlAYjew2Y0YCu6tZCWo1RjBaxFcqtINnNZ4TdhLwttTmUqQKvBAl9nnAy4THhRaj2Qr0Xlo+TlfRQRqnrTBWlVUarWiijW63VoWFNjNGzVsxoW4tmdD5nGhV7sDad8jApmfhvyaOSkUkLxzt5zM+MikMIqUzzObbjje63vu3Gfx2gn2vbvf0O3Zne88vQf9N1+OvHE/kzfcQT2TTN8wUpuMB5

> <b_ppw_ran_protassign>
1

> <b_ppw_deleted_far_waters>
1

$$$$
