DZQ
                    3D
 Structure written by MMmdl.
 55 57  0  0  1  0            999 V2000
  123.5820  116.8770   91.2090 C   0  0  0  0  0  0
  123.2150  119.4900   93.8880 C   0  0  2  0  0  0
  122.4910  120.7940   93.5410 C   0  0  0  0  0  0
  121.3420  122.8170   94.2450 C   0  0  0  0  0  0
  121.6580  122.3580   91.8730 C   0  0  0  0  0  0
  122.3100  121.1750   92.1830 C   0  0  0  0  0  0
  122.2730  122.1210   89.4830 C   0  0  0  0  0  0
  123.9280  112.2970   89.9710 C   0  0  0  0  0  0
  126.5440  110.9020   88.3640 C   0  0  0  0  0  0
  125.4360  111.7340   88.1700 O   0  0  0  0  0  0
  125.1120  112.5160   89.2870 C   0  0  0  0  0  0
  125.9780  113.5130   89.7030 C   0  0  0  0  0  0
  125.6660  114.2870   90.8110 C   0  0  0  0  0  0
  124.4760  114.0780   91.4950 C   0  0  0  0  0  0
  124.1310  114.9360   92.7250 C   0  0  0  0  0  0
  123.1880  116.1280   92.4820 C   0  0  0  0  0  0
  121.7450  115.6440   92.3560 C   0  0  0  0  0  0
  123.2860  117.0480   93.6160 N   0  3  0  0  0  0
  122.4950  118.2460   93.3490 C   0  0  0  0  0  0
  123.2650  119.3840   95.2820 O   0  0  0  0  0  0
  122.0080  121.6140   94.5610 C   0  0  0  0  0  0
  120.8560  123.6390   95.2670 O   0  0  0  0  0  0
  121.1640  123.1900   92.9100 C   0  0  0  0  0  0
  122.8050  120.3400   91.0990 O   0  0  0  0  0  0
  123.2760  121.1020   89.9990 C   0  0  0  0  0  0
  122.1680  122.3900   88.3350 O   0  0  0  0  0  0
  121.4820  122.7290   90.4860 N   0  0  0  0  0  0
  123.6140  113.0750   91.0760 C   0  0  0  0  0  0
  122.9031  117.7158   91.0555 H   0  0  0  0  0  0
  124.6019  117.2489   91.3066 H   0  0  0  0  0  0
  123.5224  116.2011   90.3559 H   0  0  0  0  0  0
  124.2294  119.5221   93.4905 H   0  0  0  0  0  0
  123.2509  111.5217   89.6440 H   0  0  0  0  0  0
  126.7321  110.3289   87.4561 H   0  0  0  0  0  0
  127.4186  111.5092   88.5975 H   0  0  0  0  0  0
  126.3458  110.2187   89.1898 H   0  0  0  0  0  0
  126.8976  113.6888   89.1646 H   0  0  0  0  0  0
  126.3494  115.0543   91.1435 H   0  0  0  0  0  0
  125.0529  115.2947   93.1828 H   0  0  0  0  0  0
  123.7102  114.2975   93.5018 H   0  0  0  0  0  0
  121.4602  115.1092   93.2621 H   0  0  0  0  0  0
  121.0848  116.5002   92.2173 H   0  0  0  0  0  0
  121.6586  114.9766   91.4985 H   0  0  0  0  0  0
  124.2520  117.3071   93.7565 H   0  0  0  0  0  0
  122.9384  116.5940   94.4486 H   0  0  0  0  0  0
  122.3454  118.3502   92.2744 H   0  0  0  0  0  0
  121.5215  118.1530   93.8303 H   0  0  0  0  0  0
  122.3834  119.2153   95.6224 H   0  0  0  0  0  0
  122.1437  121.3282   95.5936 H   0  0  0  0  0  0
  120.1371  123.1940   95.7216 H   0  0  0  0  0  0
  120.6514  124.1098   92.6701 H   0  0  0  0  0  0
  124.1972  121.6121   90.2806 H   0  0  0  0  0  0
  123.5585  120.4303   89.1884 H   0  0  0  0  0  0
  120.7935  123.4231   90.2324 H   0  0  0  0  0  0
  122.6944  112.9013   91.6150 H   0  0  0  0  0  0
  1 16  1  0  0  0
  1 29  1  0  0  0
  1 30  1  0  0  0
  1 31  1  0  0  0
  2  3  1  0  0  0
  2 19  1  0  0  0
  2 20  1  0  0  0
  2 32  1  0  0  0
  3  6  1  0  0  0
  3 21  2  0  0  0
  4 21  1  0  0  0
  4 22  1  0  0  0
  4 23  2  0  0  0
  5  6  2  0  0  0
  5 23  1  0  0  0
  5 27  1  0  0  0
  6 24  1  0  0  0
  7 25  1  0  0  0
  7 26  2  0  0  0
  7 27  1  0  0  0
  8 11  1  0  0  0
  8 28  2  0  0  0
  8 33  1  0  0  0
  9 10  1  0  0  0
  9 34  1  0  0  0
  9 35  1  0  0  0
  9 36  1  0  0  0
 10 11  1  0  0  0
 11 12  2  0  0  0
 12 13  1  0  0  0
 12 37  1  0  0  0
 13 14  2  0  0  0
 13 38  1  0  0  0
 14 15  1  0  0  0
 14 28  1  0  0  0
 15 16  1  0  0  0
 15 39  1  0  0  0
 15 40  1  0  0  0
 16 17  1  0  0  0
 16 18  1  0  0  0
 17 41  1  0  0  0
 17 42  1  0  0  0
 17 43  1  0  0  0
 18 19  1  0  0  0
 18 44  1  0  0  0
 18 45  1  0  0  0
 19 46  1  0  0  0
 19 47  1  0  0  0
 20 48  1  0  0  0
 21 49  1  0  0  0
 22 50  1  0  0  0
 23 51  1  0  0  0
 24 25  1  0  0  0
 25 52  1  0  0  0
 25 53  1  0  0  0
 27 54  1  0  0  0
 28 55  1  0  0  0
M  CHG  1  18   1
M  END
> <i_m_stars>
0

> <s_m_entry_id>
9

> <s_m_entry_name>
Structure9

> <s_pdb_PDB_TITLE>
CRYO-EM STRUCTURE OF THE BETA2-AR-MBRIL/1B3 FAB/GLUE COMPLEX WITH A FULL AGONIST

> <s_pdb_PDB_ID>
8JJL

> <s_pdb_PDB_CLASSIFICATION>
MEMBRANE PROTEIN

> <s_pdb_PDB_DEPOSITION_DATE>
30-MAY-23

> <s_pdb_PDB_format_version>
3.30

> <r_pdb_PDB_RESOLUTION>
3.2

> <s_pdb_PDB_EXPDTA>
ELECTRON MICROSCOPY

> <r_pdb_PDB_EXPDTA_PH>
7.5

> <s_pdb_PDB_REMARK_350_Biomolecule_1_Chains>
A

> <s_pdb_PDB_REMARK_350_Biomolecule_1_Transformation_1>
1.000000 0.000000 0.000000   0.000000;0.000000 1.000000 0.000000   0.000000;0.000000 0.000000 1.000000   0.000000

> <s_m_Source_Path>
D:\Research\Benchmark_Tarpass\Targets\Beta2AR

> <s_m_Source_File>
8jjl.pdb

> <i_m_Source_File_Index>
1

> <s_ppw_entry_id_backup>
7

> <b_ppw_prepared>
1

> <s_ppw_prepared_with_version>
2018-1

> <b_ppw_assigned_bond_orders>
1

> <b_ppw_added_hydrogens>
1

> <b_ppw_treated_metals>
1

> <b_ppw_created_disulfur>
1

> <b_ppw_deleted_far_waters>
1

> <b_ppw_ran_protassign>
1

$$$$
