ZJ2
                    3D
 Structure written by MMmdl.
 51 54  0  0  1  0            999 V2000
  -12.1700  -62.0990  -14.6550 C   0  0  0  0  0  0
  -11.6610  -62.9620  -15.6360 C   0  0  0  0  0  0
   -9.7210  -63.2550  -14.4160 C   0  0  0  0  0  0
  -11.3690  -61.8560  -13.5350 C   0  0  0  0  0  0
  -11.3740  -63.1000  -19.0170 C   0  0  0  0  0  0
  -10.7680  -63.7250  -20.1030 C   0  0  0  0  0  0
  -10.5180  -65.0970  -20.0920 C   0  0  0  0  0  0
  -10.9100  -65.8620  -18.9910 C   0  0  0  0  0  0
  -11.5430  -65.2590  -17.8870 C   0  0  0  0  0  0
  -11.7830  -63.8550  -17.8780 C   0  0  0  0  0  0
  -11.5690  -61.5980  -19.1500 C   0  0  0  0  0  0
  -11.9410  -66.1740  -16.7250 C   0  0  0  0  0  0
   -9.9110  -65.6700  -21.2990 C   0  0  0  0  0  0
   -9.6140  -66.9510  -21.5550 C   0  0  0  0  0  0
  -13.8490  -62.9810  -16.7140 C   0  0  0  0  0  0
   -7.7900  -64.8420  -14.9960 C   0  0  0  0  0  0
   -8.3460  -65.3360  -16.1900 C   0  0  0  0  0  0
   -7.7430  -66.3510  -16.9290 C   0  0  0  0  0  0
   -6.5560  -66.8730  -16.4250 C   0  0  0  0  0  0
   -5.9820  -66.3870  -15.2440 C   0  0  0  0  0  0
   -6.5930  -65.3700  -14.5270 C   0  0  0  0  0  0
   -5.8480  -67.9230  -17.1170 C   0  0  0  0  0  0
  -14.3240  -61.8590  -15.7410 C   0  0  0  0  0  0
   -9.1000  -67.2610  -22.8470 C   0  0  0  0  0  0
  -10.4450  -63.5360  -15.5160 N   0  0  0  0  0  0
  -10.1350  -62.4370  -13.4130 N   0  0  0  0  0  0
  -13.4200  -61.5240  -14.7990 N   0  0  0  0  0  0
   -8.4650  -63.8380  -14.2920 N   0  0  0  0  0  0
  -12.3950  -63.2470  -16.7720 N   0  0  0  0  0  0
   -8.7540  -67.4860  -23.9320 N   0  0  0  0  0  0
   -5.2510  -68.7580  -17.6360 N   0  0  0  0  0  0
  -15.4320  -61.3260  -15.8060 O   0  0  0  0  0  0
  -11.7212  -61.2022  -12.7508 H   0  0  0  0  0  0
  -10.4845  -63.1465  -20.9698 H   0  0  0  0  0  0
  -10.7284  -66.9266  -18.9809 H   0  0  0  0  0  0
  -12.0485  -61.2123  -18.2503 H   0  0  0  0  0  0
  -10.6003  -61.1155  -19.2802 H   0  0  0  0  0  0
  -12.1982  -61.3880  -20.0150 H   0  0  0  0  0  0
  -12.4177  -65.5828  -15.9431 H   0  0  0  0  0  0
  -12.6374  -66.9329  -17.0816 H   0  0  0  0  0  0
  -11.0515  -66.6584  -16.3222 H   0  0  0  0  0  0
   -9.6450  -65.0287  -22.1263 H   0  0  0  0  0  0
   -9.7668  -67.7030  -20.7951 H   0  0  0  0  0  0
  -14.2139  -62.7632  -17.7177 H   0  0  0  0  0  0
  -14.3736  -63.9066  -16.4772 H   0  0  0  0  0  0
   -9.2730  -64.9269  -16.5638 H   0  0  0  0  0  0
   -8.1987  -66.6954  -17.8455 H   0  0  0  0  0  0
   -5.0538  -66.8048  -14.8830 H   0  0  0  0  0  0
   -6.1537  -64.9875  -13.6175 H   0  0  0  0  0  0
  -13.7151  -60.7925  -14.1682 H   0  0  0  0  0  0
   -7.8361  -63.5324  -13.5632 H   0  0  0  0  0  0
  1  2  1  0  0  0
  1  4  2  0  0  0
  1 27  1  0  0  0
  2 25  2  0  0  0
  2 29  1  0  0  0
  3 25  1  0  0  0
  3 26  2  0  0  0
  3 28  1  0  0  0
  4 26  1  0  0  0
  4 33  1  0  0  0
  5  6  1  0  0  0
  5 10  2  0  0  0
  5 11  1  0  0  0
  6  7  2  0  0  0
  6 34  1  0  0  0
  7  8  1  0  0  0
  7 13  1  0  0  0
  8  9  2  0  0  0
  8 35  1  0  0  0
  9 10  1  0  0  0
  9 12  1  0  0  0
 10 29  1  0  0  0
 11 36  1  0  0  0
 11 37  1  0  0  0
 11 38  1  0  0  0
 12 39  1  0  0  0
 12 40  1  0  0  0
 12 41  1  0  0  0
 13 14  2  0  0  0
 13 42  1  0  0  0
 14 24  1  0  0  0
 14 43  1  0  0  0
 15 23  1  0  0  0
 15 29  1  0  0  0
 15 44  1  0  0  0
 15 45  1  0  0  0
 16 17  1  0  0  0
 16 21  2  0  0  0
 16 28  1  0  0  0
 17 18  2  0  0  0
 17 46  1  0  0  0
 18 19  1  0  0  0
 18 47  1  0  0  0
 19 20  2  0  0  0
 19 22  1  0  0  0
 20 21  1  0  0  0
 20 48  1  0  0  0
 21 49  1  0  0  0
 22 31  3  0  0  0
 23 27  1  0  0  0
 23 32  2  0  0  0
 24 30  3  0  0  0
 27 50  1  0  0  0
 28 51  1  0  0  0
M  END
> <i_m_stars>
0

> <s_m_entry_id>
35

> <s_m_entry_name>
Structure35

> <s_pdb_PDB_TITLE>
HIV-1 REVERSE TRANSCRIPTASE IN COMPLEX WITH 6-MEMBERED BICYCLIC CORE NNRTI

> <s_pdb_PDB_ID>
8FCD

> <r_pdb_PDB_CRYST1_a>
119.749

> <r_pdb_PDB_CRYST1_b>
155.234

> <r_pdb_PDB_CRYST1_c>
155

> <r_pdb_PDB_CRYST1_alpha>
90

> <r_pdb_PDB_CRYST1_beta>
90

> <r_pdb_PDB_CRYST1_gamma>
90

> <s_pdb_PDB_CRYST1_Space_Group>
C 2 2 21

> <i_pdb_PDB_CRYST1_z>
8

> <s_pdb_PDB_CLASSIFICATION>
VIRAL PROTEIN

> <s_pdb_PDB_DEPOSITION_DATE>
01-DEC-22

> <s_pdb_PDB_format_version>
3.30

> <r_pdb_PDB_R>
0.187999993562698

> <r_pdb_PDB_Rfree>
0.231000006198883

> <r_pdb_PDB_RESOLUTION>
2.57

> <s_pdb_PDB_EXPDTA>
X-RAY DIFFRACTION

> <r_pdb_PDB_EXPDTA_TEMPERATURE>
170

> <r_pdb_PDB_EXPDTA_PH>
6

> <s_pdb_PDB_REMARK_350_Biomolecule_1_Chains>
A, B

> <s_pdb_PDB_REMARK_350_Biomolecule_1_Transformation_1>
1.000000 0.000000 0.000000   0.000000;0.000000 1.000000 0.000000   0.000000;0.000000 0.000000 1.000000   0.000000

> <s_m_Source_Path>
D:\Research\Benchmark_Tarpass\PLI-reference\HIVRT-1KLM-NNRBP

> <s_m_Source_File>
8fcd.pdb

> <i_m_Source_File_Index>
1

> <s_ppw_entry_id_backup>
33

> <b_ppw_prepared>
1

> <s_ppw_prepared_with_version>
2018-1

> <b_ppw_assigned_bond_orders>
1

> <b_ppw_added_hydrogens>
1

> <b_ppw_treated_metals>
1

> <b_ppw_created_disulfur>
1

> <b_ppw_deleted_far_waters>
1

> <b_ppw_ran_protassign>
1

> <b_ppw_removed_non_hbond_waters>
1

$$$$
