V1Y
                    3D
 Structure written by MMmdl.
 49 53  0  0  1  0            999 V2000
   -5.3740   12.3560   13.8580 C   0  0  0  0  0  0
   -7.6920   20.4680   14.4480 C   0  0  0  0  0  0
   -4.5830   13.4580   13.4720 C   0  0  0  0  0  0
   -5.1390   14.7610   13.5620 C   0  0  0  0  0  0
   -7.5660   18.4550   13.2250 C   0  0  0  0  0  0
   -6.4710   14.9520   14.0210 C   0  0  0  0  0  0
   -7.2560   17.0260   13.0300 C   0  0  0  0  0  0
   -7.9680   19.3090   12.2470 C   0  0  0  0  0  0
   -6.6550   12.5740   14.3150 C   0  0  0  0  0  0
   -8.6350   14.0280   14.9220 C   0  0  0  0  0  0
   -7.3820   19.1120   14.5170 C   0  0  0  0  0  0
   -6.8700   19.3880   16.7610 C   0  0  0  0  0  0
   -7.5780   21.2510   15.6030 C   0  0  0  0  0  0
   -7.2180   13.8520   14.4040 C   0  0  0  0  0  0
   -4.3320   15.8540   13.1700 C   0  0  0  0  0  0
   -3.0660   15.6260   12.7370 C   0  0  0  0  0  0
   -3.2480   13.3300   12.9970 C   0  0  0  0  0  0
   -1.2710   11.9360   12.6170 C   0  0  0  0  0  0
   -0.8920   11.1270   11.5510 C   0  0  0  0  0  0
    0.4430   10.9420   11.2420 C   0  0  0  0  0  0
    1.4210   11.5600   12.0040 C   0  0  0  0  0  0
    1.0490   12.3630   13.0660 C   0  0  0  0  0  0
   -0.2880   12.5560   13.3910 C   0  0  0  0  0  0
   -0.6190   13.3520   14.4490 F   0  0  0  0  0  0
   -6.9880   18.6120   15.7050 N   0  0  0  0  0  0
   -7.1550   20.6850   16.7310 N   0  0  0  0  0  0
   -7.8820   22.5980   15.5460 N   0  0  0  0  0  0
   -2.5750   14.3990   12.6590 N   0  0  0  0  0  0
   -2.6410   12.0910   12.9040 N   0  0  0  0  0  0
   -6.8910   16.2860   14.1070 N   0  0  0  0  0  0
   -7.2450   16.5150   11.9260 O   0  0  0  0  0  0
   -8.1790   20.9080   12.8220 S   0  0  0  0  0  0
    2.2600   13.1530   14.0250 Cl  0  0  0  0  0  0
   -4.9737   11.3550   13.7935 H   0  0  0  0  0  0
   -8.1172   18.9460   11.2409 H   0  0  0  0  0  0
   -7.2679   11.7396   14.6225 H   0  0  0  0  0  0
   -9.0553   13.0534   15.1703 H   0  0  0  0  0  0
   -8.6212   14.6550   15.8135 H   0  0  0  0  0  0
   -9.2467   14.5021   14.1544 H   0  0  0  0  0  0
   -6.5298   18.9752   17.6992 H   0  0  0  0  0  0
   -4.7244   16.8591   13.2167 H   0  0  0  0  0  0
   -2.4369   16.4547   12.4474 H   0  0  0  0  0  0
   -1.6443   10.6342   10.9530 H   0  0  0  0  0  0
    0.7224   10.3162   10.4073 H   0  0  0  0  0  0
    2.4642   11.4126   11.7664 H   0  0  0  0  0  0
   -7.8021   23.1692   16.3751 H   0  0  0  0  0  0
   -8.1840   23.0111   14.6753 H   0  0  0  0  0  0
   -3.1839   11.2509   13.0440 H   0  0  0  0  0  0
   -6.9335   16.7451   15.0056 H   0  0  0  0  0  0
  1  3  1  0  0  0
  1  9  2  0  0  0
  1 34  1  0  0  0
  2 11  2  0  0  0
  2 13  1  0  0  0
  2 32  1  0  0  0
  3  4  1  0  0  0
  3 17  2  0  0  0
  4  6  1  0  0  0
  4 15  2  0  0  0
  5  7  1  0  0  0
  5  8  2  0  0  0
  5 11  1  0  0  0
  6 14  2  0  0  0
  6 30  1  0  0  0
  7 30  1  0  0  0
  7 31  2  0  0  0
  8 32  1  0  0  0
  8 35  1  0  0  0
  9 14  1  0  0  0
  9 36  1  0  0  0
 10 14  1  0  0  0
 10 37  1  0  0  0
 10 38  1  0  0  0
 10 39  1  0  0  0
 11 25  1  0  0  0
 12 25  2  0  0  0
 12 26  1  0  0  0
 12 40  1  0  0  0
 13 26  2  0  0  0
 13 27  1  0  0  0
 15 16  1  0  0  0
 15 41  1  0  0  0
 16 28  2  0  0  0
 16 42  1  0  0  0
 17 28  1  0  0  0
 17 29  1  0  0  0
 18 19  1  0  0  0
 18 23  2  0  0  0
 18 29  1  0  0  0
 19 20  2  0  0  0
 19 43  1  0  0  0
 20 21  1  0  0  0
 20 44  1  0  0  0
 21 22  2  0  0  0
 21 45  1  0  0  0
 22 23  1  0  0  0
 22 33  1  0  0  0
 23 24  1  0  0  0
 27 46  1  0  0  0
 27 47  1  0  0  0
 29 48  1  0  0  0
 30 49  1  0  0  0
M  END
> <i_m_stars>
0

> <s_m_entry_id>
14

> <s_m_entry_name>
Structure14

> <s_pdb_PDB_TITLE>
CRYSTAL STRUCTURE OF BRAF KINASE DOMAIN BOUND TO BELVARAFENIB

> <s_pdb_PDB_ID>
6XFP

> <r_pdb_PDB_CRYST1_a>
48.793

> <r_pdb_PDB_CRYST1_b>
119.563

> <r_pdb_PDB_CRYST1_c>
103.934

> <r_pdb_PDB_CRYST1_alpha>
90

> <r_pdb_PDB_CRYST1_beta>
90

> <r_pdb_PDB_CRYST1_gamma>
90

> <s_pdb_PDB_CRYST1_Space_Group>
C 2 2 21

> <i_pdb_PDB_CRYST1_z>
8

> <s_pdb_PDB_CLASSIFICATION>
SIGNALING PROTEIN

> <s_pdb_PDB_DEPOSITION_DATE>
16-JUN-20

> <s_pdb_PDB_format_version>
3.30

> <r_pdb_PDB_R>
0.203999996185303

> <r_pdb_PDB_Rfree>
0.256999999284744

> <r_pdb_PDB_RESOLUTION>
2

> <s_pdb_PDB_EXPDTA>
X-RAY DIFFRACTION

> <r_pdb_PDB_EXPDTA_TEMPERATURE>
100

> <s_pdb_PDB_REMARK_350_Biomolecule_1_Chains>
A

> <s_pdb_PDB_REMARK_350_Biomolecule_1_Transformation_1>
1.000000 0.000000 0.000000   0.000000;0.000000 1.000000 0.000000   0.000000;0.000000 0.000000 1.000000   0.000000

> <s_pdb_PDB_REMARK_350_Biomolecule_1_Transformation_2>
-1.000000 0.000000 0.000000   0.000000;0.000000 1.000000 0.000000   0.000000;0.000000 0.000000 -1.000000   51.967000

> <s_m_Source_Path>
D:\Research\Benchmark_Tarpass\Targets\BRAF

> <s_m_Source_File>
6xfp.pdb

> <i_m_Source_File_Index>
1

> <s_ppw_entry_id_backup>
12

> <b_ppw_prepared>
1

> <s_ppw_prepared_with_version>
2018-1

> <b_ppw_assigned_bond_orders>
1

> <b_ppw_added_hydrogens>
1

> <b_ppw_treated_metals>
1

> <b_ppw_created_disulfur>
1

> <b_ppw_deleted_far_waters>
1

> <b_ppw_ran_protassign>
1

> <b_ppw_removed_non_hbond_waters>
1

$$$$
