REMARK SMILES O=C(CCCCCCNC(=O)c1cnc(N(c2ccccc2)c2ccccc2)nc1)NO
REMARK SMILES IDX 6 1 5 2 4 3 3 4 2 5 31 6 1 8 32 9 7 11 8 12 9 13 10 14 11 16
REMARK SMILES IDX 12 17 30 18 13 19 29 20 14 21 15 22 16 23 17 24 22 25 18 26
REMARK SMILES IDX 21 27 19 28 20 29 23 30 24 31 28 32 25 33 27 34 26 35
REMARK H PARENT 31 7 32 10 9 15
ROOT
ATOM      1  C   UNL     1     -41.562 -23.103 -32.092  1.00  0.00     0.002 C 
ENDROOT
BRANCH   1   2
ATOM      2  C   UNL     1     -41.478 -24.621 -31.942  1.00  0.00     0.001 C 
BRANCH   2   3
ATOM      3  C   UNL     1     -40.746 -25.111 -30.618  1.00  0.00     0.010 C 
BRANCH   3   4
ATOM      4  C   UNL     1     -40.412 -26.606 -30.641  1.00  0.00     0.102 C 
BRANCH   4   5
ATOM      5  C   UNL     1     -40.264 -27.185 -29.268  1.00  0.00     0.243 C 
ATOM      6  N   UNL     1     -41.312 -27.917 -28.689  1.00  0.00    -0.238 N 
ATOM      7  H   UNL     1     -42.147 -28.080 -29.185  1.00  0.00     0.198 HD
ATOM      8  O   UNL     1     -39.194 -26.998 -28.616  1.00  0.00    -0.273 OA
BRANCH   6   9
ATOM      9  O   UNL     1     -41.140 -28.416 -27.373  1.00  0.00    -0.289 OA
ATOM     10  H   UNL     1     -40.264 -28.162 -27.043  1.00  0.00     0.246 HD
ENDBRANCH   6   9
ENDBRANCH   4   5
ENDBRANCH   3   4
ENDBRANCH   2   3
ENDBRANCH   1   2
BRANCH   1  11
ATOM     11  C   UNL     1     -42.033 -22.632 -33.519  1.00  0.00     0.021 C 
BRANCH  11  12
ATOM     12  C   UNL     1     -42.123 -21.096 -33.660  1.00  0.00     0.116 C 
BRANCH  12  13
ATOM     13  N   UNL     1     -40.781 -20.510 -33.650  1.00  0.00    -0.352 N 
ATOM     14  C   UNL     1     -40.239 -19.746 -32.548  1.00  0.00     0.254 C 
ATOM     15  H   UNL     1     -40.212 -20.644 -34.443  1.00  0.00     0.163 HD
ATOM     16  O   UNL     1     -40.955 -19.561 -31.542  1.00  0.00    -0.269 OA
BRANCH  14  17
ATOM     17  C   UNL     1     -38.836 -19.158 -32.616  1.00  0.00     0.076 A 
ATOM     18  C   UNL     1     -38.492 -18.008 -31.869  1.00  0.00     0.130 A 
ATOM     19  C   UNL     1     -37.783 -19.700 -33.454  1.00  0.00     0.130 A 
ATOM     20  N   UNL     1     -37.240 -17.475 -31.933  1.00  0.00    -0.220 NA
ATOM     21  N   UNL     1     -36.511 -19.136 -33.498  1.00  0.00    -0.220 NA
ATOM     22  C   UNL     1     -36.247 -18.006 -32.731  1.00  0.00     0.234 A 
BRANCH  22  23
ATOM     23  N   UNL     1     -34.930 -17.328 -32.715  1.00  0.00    -0.279 N 
BRANCH  23  24
ATOM     24  C   UNL     1     -33.696 -17.987 -33.287  1.00  0.00     0.049 A 
ATOM     25  C   UNL     1     -33.357 -17.890 -34.677  1.00  0.00     0.027 A 
ATOM     26  C   UNL     1     -32.799 -18.725 -32.480  1.00  0.00     0.027 A 
ATOM     27  C   UNL     1     -32.190 -18.509 -35.224  1.00  0.00     0.002 A 
ATOM     28  C   UNL     1     -31.627 -19.355 -33.012  1.00  0.00     0.002 A 
ATOM     29  C   UNL     1     -31.309 -19.247 -34.395  1.00  0.00     0.000 A 
ENDBRANCH  23  24
BRANCH  23  30
ATOM     30  C   UNL     1     -34.873 -16.136 -31.783  1.00  0.00     0.049 A 
ATOM     31  C   UNL     1     -35.617 -14.928 -32.063  1.00  0.00     0.027 A 
ATOM     32  C   UNL     1     -34.132 -16.151 -30.564  1.00  0.00     0.027 A 
ATOM     33  C   UNL     1     -35.598 -13.790 -31.189  1.00  0.00     0.002 A 
ATOM     34  C   UNL     1     -34.100 -15.013 -29.682  1.00  0.00     0.002 A 
ATOM     35  C   UNL     1     -34.837 -13.829 -29.988  1.00  0.00     0.000 A 
ENDBRANCH  23  30
ENDBRANCH  22  23
ENDBRANCH  14  17
ENDBRANCH  12  13
ENDBRANCH  11  12
ENDBRANCH   1  11
TORSDOF 12
