REMARK SMILES O=C(CCCCCCNC(=O)c1cnc(N(c2ccccc2)c2ccccc2)nc1)NO
REMARK SMILES IDX 6 1 5 2 4 3 3 4 2 5 31 6 1 8 32 9 7 11 8 12 9 13 10 14 11 16
REMARK SMILES IDX 12 17 30 18 13 19 29 20 14 21 15 22 16 23 17 24 22 25 18 26
REMARK SMILES IDX 21 27 19 28 20 29 23 30 24 31 28 32 25 33 27 34 26 35
REMARK H PARENT 31 7 32 10 9 15
ROOT
ATOM      1  C   UNL     1       8.349   0.099  25.683  1.00  0.00     0.002 C 
ENDROOT
BRANCH   1   2
ATOM      2  C   UNL     1       7.793   0.178  27.103  1.00  0.00     0.001 C 
BRANCH   2   3
ATOM      3  C   UNL     1       7.275   1.621  27.527  1.00  0.00     0.010 C 
BRANCH   3   4
ATOM      4  C   UNL     1       6.913   2.500  26.326  1.00  0.00     0.102 C 
BRANCH   4   5
ATOM      5  C   UNL     1       6.785   3.947  26.688  1.00  0.00     0.243 C 
ATOM      6  N   UNL     1       5.869   4.355  27.670  1.00  0.00    -0.238 N 
ATOM      7  H   UNL     1       5.317   3.696  28.150  1.00  0.00     0.198 HD
ATOM      8  O   UNL     1       7.494   4.812  26.093  1.00  0.00    -0.273 OA
BRANCH   6   9
ATOM      9  O   UNL     1       5.758   5.740  27.955  1.00  0.00    -0.289 OA
ATOM     10  H   UNL     1       5.955   6.251  27.155  1.00  0.00     0.246 HD
ENDBRANCH   6   9
ENDBRANCH   4   5
ENDBRANCH   3   4
ENDBRANCH   2   3
ENDBRANCH   1   2
BRANCH   1  11
ATOM     11  C   UNL     1       7.557  -0.888  24.745  1.00  0.00     0.021 C 
BRANCH  11  12
ATOM     12  C   UNL     1       6.065  -1.028  25.122  1.00  0.00     0.116 C 
BRANCH  12  13
ATOM     13  N   UNL     1       5.769  -0.227  26.311  1.00  0.00    -0.352 N 
ATOM     14  C   UNL     1       5.591   1.209  26.297  1.00  0.00     0.254 C 
ATOM     15  H   UNL     1       5.685  -0.694  27.174  1.00  0.00     0.163 HD
ATOM     16  O   UNL     1       5.704   1.812  25.210  1.00  0.00    -0.269 OA
BRANCH  14  17
ATOM     17  C   UNL     1       5.294   1.975  27.579  1.00  0.00     0.076 A 
ATOM     18  C   UNL     1       6.224   2.902  28.104  1.00  0.00     0.130 A 
ATOM     19  C   UNL     1       4.082   1.795  28.354  1.00  0.00     0.130 A 
ATOM     20  N   UNL     1       5.965   3.584  29.254  1.00  0.00    -0.220 NA
ATOM     21  N   UNL     1       3.842   2.508  29.526  1.00  0.00    -0.220 NA
ATOM     22  C   UNL     1       4.804   3.405  29.978  1.00  0.00     0.234 A 
BRANCH  22  23
ATOM     23  N   UNL     1       4.647   4.204  31.216  1.00  0.00    -0.279 N 
BRANCH  23  24
ATOM     24  C   UNL     1       3.286   4.639  31.708  1.00  0.00     0.049 A 
ATOM     25  C   UNL     1       2.906   6.020  31.775  1.00  0.00     0.027 A 
ATOM     26  C   UNL     1       2.305   3.705  32.117  1.00  0.00     0.027 A 
ATOM     27  C   UNL     1       1.619   6.437  32.237  1.00  0.00     0.002 A 
ATOM     28  C   UNL     1       1.012   4.106  32.587  1.00  0.00     0.002 A 
ATOM     29  C   UNL     1       0.655   5.482  32.646  1.00  0.00     0.000 A 
ENDBRANCH  23  24
BRANCH  23  30
ATOM     30  C   UNL     1       5.939   4.826  31.703  1.00  0.00     0.049 A 
ATOM     31  C   UNL     1       7.189   4.101  31.648  1.00  0.00     0.027 A 
ATOM     32  C   UNL     1       6.008   6.164  32.194  1.00  0.00     0.027 A 
ATOM     33  C   UNL     1       8.431   4.671  32.084  1.00  0.00     0.002 A 
ATOM     34  C   UNL     1       7.248   6.745  32.641  1.00  0.00     0.002 A 
ATOM     35  C   UNL     1       8.466   6.002  32.583  1.00  0.00     0.000 A 
ENDBRANCH  23  30
ENDBRANCH  22  23
ENDBRANCH  14  17
ENDBRANCH  12  13
ENDBRANCH  11  12
ENDBRANCH   1  11
TORSDOF 12
