REMARK SMILES CS(=O)(=O)N(Cc1ccc(/C([O-])=N/N)cn1)c1cccc(Cl)c1
REMARK SMILES IDX 7 1 8 2 9 3 10 4 15 5 16 6 6 7 5 8 17 9 21 10 20 11 23 12
REMARK SMILES IDX 19 13 18 14 22 15 2 16 1 17 3 18 4 19 11 20 12 21 13 22
REMARK SMILES IDX 14 23
REMARK H PARENT 14 24 14 25
ROOT
ATOM      1  C   UNL     1       3.899   3.541  28.845  1.00  0.00     0.061 A 
ATOM      2  C   UNL     1       4.319   3.237  27.564  1.00  0.00     0.026 A 
ATOM      3  C   UNL     1       4.637   4.278  26.730  1.00  0.00     0.013 A 
ATOM      4  C   UNL     1       4.526   5.591  27.166  1.00  0.00     0.005 A 
ATOM      5  C   UNL     1       4.105   5.809  28.476  1.00  0.00     0.120 A 
ATOM      6  N   UNL     1       3.823   4.797  29.309  1.00  0.00    -0.259 NA
ENDROOT
BRANCH   1   7
ATOM      7  C   UNL     1       3.513   2.457  29.805  1.00  0.00     0.191 C 
BRANCH   7   8
ATOM      8  N   UNL     1       4.055   1.134  29.526  1.00  0.00    -0.264 N 
BRANCH   8   9
ATOM      9  C   UNL     1       5.371   0.820  29.939  1.00  0.00     0.053 A 
ATOM     10  C   UNL     1       7.584   0.009  29.589  1.00  0.00     0.043 A 
ATOM     11  C   UNL     1       7.924   0.217  30.912  1.00  0.00     0.020 A 
ATOM     12  C   UNL     1       6.320   0.295  29.072  1.00  0.00     0.047 A 
ATOM     13  C   UNL     1       6.963   0.724  31.755  1.00  0.00     0.004 A 
ATOM     14  C   UNL     1       5.693   1.002  31.284  1.00  0.00     0.027 A 
ATOM     15  Cl  UNL     1       8.757  -0.679  28.521  1.00  0.00    -0.084 Cl
ENDBRANCH   8   9
BRANCH   8  16
ATOM     16  S   UNL     1       2.973  -0.034  29.215  1.00  0.00     0.232 S 
ATOM     17  C   UNL     1       2.378  -0.384  30.781  1.00  0.00     0.183 C 
ATOM     18  O   UNL     1       3.655  -1.196  28.741  1.00  0.00    -0.207 OA
ATOM     19  O   UNL     1       1.916   0.528  28.440  1.00  0.00    -0.207 OA
ENDBRANCH   8  16
ENDBRANCH   7   8
ENDBRANCH   1   7
BRANCH   4  20
ATOM     20  C   UNL     1       4.845   6.695  26.229  1.00  0.00     0.016 C 
ATOM     21  O   UNL     1       5.717   6.584  25.350  1.00  0.00    -0.857 OA
BRANCH  20  22
ATOM     22  N   UNL     1       4.087   7.788  26.301  1.00  0.00    -0.199 NA
BRANCH  22  23
ATOM     23  N   UNL     1       4.236   8.801  25.322  1.00  0.00    -0.324 N 
ATOM     24  H   UNL     1       3.667   9.634  25.367  1.00  0.00     0.179 HD
ATOM     25  H   UNL     1       4.912   8.690  24.579  1.00  0.00     0.179 HD
ENDBRANCH  22  23
ENDBRANCH  20  22
ENDBRANCH   4  20
TORSDOF 7
