MODEL 1
REMARK VINA RESULT:    -9.496      0.000      0.000
REMARK INTER + INTRA:         -13.291
REMARK INTER:                 -11.584
REMARK INTRA:                  -1.706
REMARK CONF_INDEPENDENT:        2.088
REMARK UNBOUND:                -1.706
REMARK SMILES CS(=O)(=O)N(Cc1ccc(/C([O-])=N/N)cn1)c1cccc(Cl)c1
REMARK SMILES IDX 7 1 8 2 9 3 10 4 15 5 16 6 6 7 5 8 17 9 21 10 20 11 23 12
REMARK SMILES IDX 19 13 18 14 22 15 2 16 1 17 3 18 4 19 11 20 12 21 13 22
REMARK SMILES IDX 14 23
REMARK H PARENT 14 24 14 25
ROOT
ATOM      1  C   UNL     1       4.979   3.656  27.233  1.00  0.00     0.061 A 
ATOM      2  C   UNL     1       4.120   4.405  28.015  1.00  0.00     0.026 A 
ATOM      3  C   UNL     1       4.106   5.764  27.831  1.00  0.00     0.013 A 
ATOM      4  C   UNL     1       4.939   6.358  26.893  1.00  0.00     0.005 A 
ATOM      5  C   UNL     1       5.767   5.528  26.139  1.00  0.00     0.120 A 
ATOM      6  N   UNL     1       5.765   4.196  26.290  1.00  0.00    -0.259 NA
ENDROOT
BRANCH   1   7
ATOM      7  C   UNL     1       5.066   2.169  27.395  1.00  0.00     0.191 C 
BRANCH   7   8
ATOM      8  N   UNL     1       3.891   1.412  26.985  1.00  0.00    -0.264 N 
BRANCH   8   9
ATOM      9  C   UNL     1       2.973   0.967  27.965  1.00  0.00     0.053 A 
ATOM     10  C   UNL     1       0.962  -0.087  28.687  1.00  0.00     0.043 A 
ATOM     11  C   UNL     1       1.239   0.180  30.014  1.00  0.00     0.020 A 
ATOM     12  C   UNL     1       1.803   0.294  27.641  1.00  0.00     0.047 A 
ATOM     13  C   UNL     1       2.396   0.861  30.309  1.00  0.00     0.004 A 
ATOM     14  C   UNL     1       3.245   1.273  29.299  1.00  0.00     0.027 A 
ATOM     15  Cl  UNL     1      -0.513  -0.894  28.284  1.00  0.00    -0.084 Cl
ENDBRANCH   8   9
BRANCH   8  16
ATOM     16  S   UNL     1       3.453   1.553  25.429  1.00  0.00     0.232 S 
ATOM     17  C   UNL     1       3.539  -0.071  24.894  1.00  0.00     0.183 C 
ATOM     18  O   UNL     1       4.449   2.294  24.723  1.00  0.00    -0.207 OA
ATOM     19  O   UNL     1       2.093   1.978  25.382  1.00  0.00    -0.207 OA
ENDBRANCH   8  16
ENDBRANCH   7   8
ENDBRANCH   1   7
BRANCH   4  20
ATOM     20  C   UNL     1       4.924   7.832  26.742  1.00  0.00     0.016 C 
ATOM     21  O   UNL     1       4.878   8.597  27.721  1.00  0.00    -0.857 OA
BRANCH  20  22
ATOM     22  N   UNL     1       5.061   8.315  25.508  1.00  0.00    -0.199 NA
BRANCH  22  23
ATOM     23  N   UNL     1       5.390   9.682  25.331  1.00  0.00    -0.324 N 
ATOM     24  H   UNL     1       5.754  10.003  24.445  1.00  0.00     0.179 HD
ATOM     25  H   UNL     1       5.259  10.336  26.090  1.00  0.00     0.179 HD
ENDBRANCH  22  23
ENDBRANCH  20  22
ENDBRANCH   4  20
TORSDOF 7
ENDMDL
MODEL 2
REMARK VINA RESULT:    -9.240      2.052      2.932
REMARK INTER + INTRA:         -12.985
REMARK INTER:                 -11.328
REMARK INTRA:                  -1.657
REMARK CONF_INDEPENDENT:        2.088
REMARK UNBOUND:                -1.657
REMARK SMILES CS(=O)(=O)N(Cc1ccc(/C([O-])=N/N)cn1)c1cccc(Cl)c1
REMARK SMILES IDX 7 1 8 2 9 3 10 4 15 5 16 6 6 7 5 8 17 9 21 10 20 11 23 12
REMARK SMILES IDX 19 13 18 14 22 15 2 16 1 17 3 18 4 19 11 20 12 21 13 22
REMARK SMILES IDX 14 23
REMARK H PARENT 14 24 14 25
ROOT
ATOM      1  C   UNL     1       4.844   3.790  27.527  1.00  0.00     0.061 A 
ATOM      2  C   UNL     1       4.106   4.627  28.342  1.00  0.00     0.026 A 
ATOM      3  C   UNL     1       4.122   5.970  28.063  1.00  0.00     0.013 A 
ATOM      4  C   UNL     1       4.868   6.461  27.001  1.00  0.00     0.005 A 
ATOM      5  C   UNL     1       5.575   5.547  26.223  1.00  0.00     0.120 A 
ATOM      6  N   UNL     1       5.540   4.229  26.468  1.00  0.00    -0.259 NA
ENDROOT
BRANCH   1   7
ATOM      7  C   UNL     1       4.893   2.314  27.784  1.00  0.00     0.191 C 
BRANCH   7   8
ATOM      8  N   UNL     1       3.605   1.648  27.927  1.00  0.00    -0.264 N 
BRANCH   8   9
ATOM      9  C   UNL     1       2.994   1.064  26.792  1.00  0.00     0.053 A 
ATOM     10  C   UNL     1       1.386  -0.318  25.706  1.00  0.00     0.043 A 
ATOM     11  C   UNL     1       1.916  -0.042  24.460  1.00  0.00     0.020 A 
ATOM     12  C   UNL     1       1.901   0.213  26.888  1.00  0.00     0.047 A 
ATOM     13  C   UNL     1       3.008   0.792  24.391  1.00  0.00     0.004 A 
ATOM     14  C   UNL     1       3.558   1.322  25.543  1.00  0.00     0.027 A 
ATOM     15  Cl  UNL     1       0.048  -1.406  25.824  1.00  0.00    -0.084 Cl
ENDBRANCH   8   9
BRANCH   8  16
ATOM     16  S   UNL     1       3.198   1.188  29.428  1.00  0.00     0.232 S 
ATOM     17  C   UNL     1       3.894  -0.373  29.516  1.00  0.00     0.183 C 
ATOM     18  O   UNL     1       1.780   1.035  29.507  1.00  0.00    -0.207 OA
ATOM     19  O   UNL     1       3.867   2.040  30.356  1.00  0.00    -0.207 OA
ENDBRANCH   8  16
ENDBRANCH   7   8
ENDBRANCH   1   7
BRANCH   4  20
ATOM     20  C   UNL     1       4.892   7.922  26.747  1.00  0.00     0.016 C 
ATOM     21  O   UNL     1       4.737   8.754  27.658  1.00  0.00    -0.857 OA
BRANCH  20  22
ATOM     22  N   UNL     1       5.185   8.316  25.509  1.00  0.00    -0.199 NA
BRANCH  22  23
ATOM     23  N   UNL     1       5.395   9.693  25.251  1.00  0.00    -0.324 N 
ATOM     24  H   UNL     1       5.811   9.986  24.379  1.00  0.00     0.179 HD
ATOM     25  H   UNL     1       5.128  10.383  25.940  1.00  0.00     0.179 HD
ENDBRANCH  22  23
ENDBRANCH  20  22
ENDBRANCH   4  20
TORSDOF 7
ENDMDL
MODEL 3
REMARK VINA RESULT:    -9.234      2.639      3.448
REMARK INTER + INTRA:         -12.921
REMARK INTER:                 -11.322
REMARK INTRA:                  -1.599
REMARK CONF_INDEPENDENT:        2.088
REMARK UNBOUND:                -1.599
REMARK SMILES CS(=O)(=O)N(Cc1ccc(/C([O-])=N/N)cn1)c1cccc(Cl)c1
REMARK SMILES IDX 7 1 8 2 9 3 10 4 15 5 16 6 6 7 5 8 17 9 21 10 20 11 23 12
REMARK SMILES IDX 19 13 18 14 22 15 2 16 1 17 3 18 4 19 11 20 12 21 13 22
REMARK SMILES IDX 14 23
REMARK H PARENT 14 24 14 25
ROOT
ATOM      1  C   UNL     1       4.065   4.078  27.784  1.00  0.00     0.061 A 
ATOM      2  C   UNL     1       4.861   4.291  26.675  1.00  0.00     0.026 A 
ATOM      3  C   UNL     1       5.217   5.582  26.380  1.00  0.00     0.013 A 
ATOM      4  C   UNL     1       4.776   6.634  27.171  1.00  0.00     0.005 A 
ATOM      5  C   UNL     1       3.986   6.330  28.277  1.00  0.00     0.120 A 
ATOM      6  N   UNL     1       3.660   5.068  28.592  1.00  0.00    -0.259 NA
ENDROOT
BRANCH   1   7
ATOM      7  C   UNL     1       3.618   2.696  28.156  1.00  0.00     0.191 C 
BRANCH   7   8
ATOM      8  N   UNL     1       4.474   1.606  27.708  1.00  0.00    -0.264 N 
BRANCH   8   9
ATOM      9  C   UNL     1       5.516   1.149  28.549  1.00  0.00     0.053 A 
ATOM     10  C   UNL     1       6.573   0.831  30.660  1.00  0.00     0.043 A 
ATOM     11  C   UNL     1       7.668   0.222  30.077  1.00  0.00     0.020 A 
ATOM     12  C   UNL     1       5.485   1.307  29.928  1.00  0.00     0.047 A 
ATOM     13  C   UNL     1       7.682   0.090  28.709  1.00  0.00     0.004 A 
ATOM     14  C   UNL     1       6.631   0.567  27.947  1.00  0.00     0.027 A 
ATOM     15  Cl  UNL     1       6.556   1.059  32.374  1.00  0.00    -0.084 Cl
ENDBRANCH   8   9
BRANCH   8  16
ATOM     16  S   UNL     1       3.883   0.671  26.521  1.00  0.00     0.232 S 
ATOM     17  C   UNL     1       2.301   0.347  27.087  1.00  0.00     0.183 C 
ATOM     18  O   UNL     1       4.596  -0.567  26.496  1.00  0.00    -0.207 OA
ATOM     19  O   UNL     1       3.792   1.456  25.335  1.00  0.00    -0.207 OA
ENDBRANCH   8  16
ENDBRANCH   7   8
ENDBRANCH   1   7
BRANCH   4  20
ATOM     20  C   UNL     1       5.151   8.021  26.806  1.00  0.00     0.016 C 
ATOM     21  O   UNL     1       5.534   8.847  27.653  1.00  0.00    -0.857 OA
BRANCH  20  22
ATOM     22  N   UNL     1       5.155   8.325  25.509  1.00  0.00    -0.199 NA
BRANCH  22  23
ATOM     23  N   UNL     1       5.488   9.642  25.107  1.00  0.00    -0.324 N 
ATOM     24  H   UNL     1       5.814   9.816  24.167  1.00  0.00     0.179 HD
ATOM     25  H   UNL     1       5.398  10.408  25.760  1.00  0.00     0.179 HD
ENDBRANCH  22  23
ENDBRANCH  20  22
ENDBRANCH   4  20
TORSDOF 7
ENDMDL
MODEL 4
REMARK VINA RESULT:    -9.099      2.610      3.262
REMARK INTER + INTRA:         -12.855
REMARK INTER:                 -11.187
REMARK INTRA:                  -1.668
REMARK CONF_INDEPENDENT:        2.088
REMARK UNBOUND:                -1.668
REMARK SMILES CS(=O)(=O)N(Cc1ccc(/C([O-])=N/N)cn1)c1cccc(Cl)c1
REMARK SMILES IDX 7 1 8 2 9 3 10 4 15 5 16 6 6 7 5 8 17 9 21 10 20 11 23 12
REMARK SMILES IDX 19 13 18 14 22 15 2 16 1 17 3 18 4 19 11 20 12 21 13 22
REMARK SMILES IDX 14 23
REMARK H PARENT 14 24 14 25
ROOT
ATOM      1  C   UNL     1       3.942   4.269  27.313  1.00  0.00     0.061 A 
ATOM      2  C   UNL     1       4.915   4.455  26.350  1.00  0.00     0.026 A 
ATOM      3  C   UNL     1       5.409   5.723  26.176  1.00  0.00     0.013 A 
ATOM      4  C   UNL     1       4.932   6.778  26.940  1.00  0.00     0.005 A 
ATOM      5  C   UNL     1       3.957   6.501  27.897  1.00  0.00     0.120 A 
ATOM      6  N   UNL     1       3.491   5.259  28.096  1.00  0.00    -0.259 NA
ENDROOT
BRANCH   1   7
ATOM      7  C   UNL     1       3.338   2.917  27.544  1.00  0.00     0.191 C 
BRANCH   7   8
ATOM      8  N   UNL     1       4.224   1.778  27.340  1.00  0.00    -0.264 N 
BRANCH   8   9
ATOM      9  C   UNL     1       5.106   1.389  28.375  1.00  0.00     0.053 A 
ATOM     10  C   UNL     1       7.161   0.528  29.221  1.00  0.00     0.043 A 
ATOM     11  C   UNL     1       6.722   0.626  30.528  1.00  0.00     0.020 A 
ATOM     12  C   UNL     1       6.380   0.896  28.125  1.00  0.00     0.047 A 
ATOM     13  C   UNL     1       5.452   1.103  30.750  1.00  0.00     0.004 A 
ATOM     14  C   UNL     1       4.641   1.460  29.689  1.00  0.00     0.027 A 
ATOM     15  Cl  UNL     1       8.733  -0.121  28.911  1.00  0.00    -0.084 Cl
ENDBRANCH   8   9
BRANCH   8  16
ATOM     16  S   UNL     1       3.805   0.744  26.163  1.00  0.00     0.232 S 
ATOM     17  C   UNL     1       2.325   0.122  26.756  1.00  0.00     0.183 C 
ATOM     18  O   UNL     1       4.743  -0.332  26.123  1.00  0.00    -0.207 OA
ATOM     19  O   UNL     1       3.543   1.494  24.978  1.00  0.00    -0.207 OA
ENDBRANCH   8  16
ENDBRANCH   7   8
ENDBRANCH   1   7
BRANCH   4  20
ATOM     20  C   UNL     1       5.463   8.142  26.704  1.00  0.00     0.016 C 
ATOM     21  O   UNL     1       6.163   8.732  27.544  1.00  0.00    -0.857 OA
BRANCH  20  22
ATOM     22  N   UNL     1       5.240   8.679  25.506  1.00  0.00    -0.199 NA
BRANCH  22  23
ATOM     23  N   UNL     1       5.462  10.065  25.315  1.00  0.00    -0.324 N 
ATOM     24  H   UNL     1       5.409  10.462  24.388  1.00  0.00     0.179 HD
ATOM     25  H   UNL     1       5.672  10.657  26.107  1.00  0.00     0.179 HD
ENDBRANCH  22  23
ENDBRANCH  20  22
ENDBRANCH   4  20
TORSDOF 7
ENDMDL
MODEL 5
REMARK VINA RESULT:    -9.066      2.118      2.967
REMARK INTER + INTRA:         -12.935
REMARK INTER:                 -11.154
REMARK INTRA:                  -1.780
REMARK CONF_INDEPENDENT:        2.088
REMARK UNBOUND:                -1.780
REMARK SMILES CS(=O)(=O)N(Cc1ccc(/C([O-])=N/N)cn1)c1cccc(Cl)c1
REMARK SMILES IDX 7 1 8 2 9 3 10 4 15 5 16 6 6 7 5 8 17 9 21 10 20 11 23 12
REMARK SMILES IDX 19 13 18 14 22 15 2 16 1 17 3 18 4 19 11 20 12 21 13 22
REMARK SMILES IDX 14 23
REMARK H PARENT 14 24 14 25
ROOT
ATOM      1  C   UNL     1       3.947   4.250  28.126  1.00  0.00     0.061 A 
ATOM      2  C   UNL     1       3.817   5.358  28.942  1.00  0.00     0.026 A 
ATOM      3  C   UNL     1       4.284   6.559  28.471  1.00  0.00     0.013 A 
ATOM      4  C   UNL     1       4.876   6.643  27.218  1.00  0.00     0.005 A 
ATOM      5  C   UNL     1       4.958   5.480  26.456  1.00  0.00     0.120 A 
ATOM      6  N   UNL     1       4.475   4.309  26.895  1.00  0.00    -0.259 NA
ENDROOT
BRANCH   1   7
ATOM      7  C   UNL     1       3.480   2.901  28.582  1.00  0.00     0.191 C 
BRANCH   7   8
ATOM      8  N   UNL     1       4.046   1.758  27.878  1.00  0.00    -0.264 N 
BRANCH   8   9
ATOM      9  C   UNL     1       3.407   1.273  26.714  1.00  0.00     0.053 A 
ATOM     10  C   UNL     1       1.712   0.066  25.552  1.00  0.00     0.043 A 
ATOM     11  C   UNL     1       2.276   0.355  24.324  1.00  0.00     0.020 A 
ATOM     12  C   UNL     1       2.251   0.504  26.762  1.00  0.00     0.047 A 
ATOM     13  C   UNL     1       3.428   1.105  24.303  1.00  0.00     0.004 A 
ATOM     14  C   UNL     1       4.003   1.542  25.482  1.00  0.00     0.027 A 
ATOM     15  Cl  UNL     1       0.294  -0.922  25.610  1.00  0.00    -0.084 Cl
ENDBRANCH   8   9
BRANCH   8  16
ATOM     16  S   UNL     1       5.608   1.434  28.174  1.00  0.00     0.232 S 
ATOM     17  C   UNL     1       5.636   1.386  29.885  1.00  0.00     0.183 C 
ATOM     18  O   UNL     1       6.407   2.542  27.759  1.00  0.00    -0.207 OA
ATOM     19  O   UNL     1       5.897   0.129  27.676  1.00  0.00    -0.207 OA
ENDBRANCH   8  16
ENDBRANCH   7   8
ENDBRANCH   1   7
BRANCH   4  20
ATOM     20  C   UNL     1       5.402   7.949  26.752  1.00  0.00     0.016 C 
ATOM     21  O   UNL     1       6.170   8.638  27.446  1.00  0.00    -0.857 OA
BRANCH  20  22
ATOM     22  N   UNL     1       5.095   8.316  25.509  1.00  0.00    -0.199 NA
BRANCH  22  23
ATOM     23  N   UNL     1       5.395   9.633  25.080  1.00  0.00    -0.324 N 
ATOM     24  H   UNL     1       6.187  10.122  25.471  1.00  0.00     0.179 HD
ATOM     25  H   UNL     1       4.816  10.081  24.384  1.00  0.00     0.179 HD
ENDBRANCH  22  23
ENDBRANCH  20  22
ENDBRANCH   4  20
TORSDOF 7
ENDMDL
MODEL 6
REMARK VINA RESULT:    -8.533      1.967      2.403
REMARK INTER + INTRA:         -12.320
REMARK INTER:                 -10.621
REMARK INTRA:                  -1.699
REMARK CONF_INDEPENDENT:        2.088
REMARK UNBOUND:                -1.699
REMARK SMILES CS(=O)(=O)N(Cc1ccc(/C([O-])=N/N)cn1)c1cccc(Cl)c1
REMARK SMILES IDX 7 1 8 2 9 3 10 4 15 5 16 6 6 7 5 8 17 9 21 10 20 11 23 12
REMARK SMILES IDX 19 13 18 14 22 15 2 16 1 17 3 18 4 19 11 20 12 21 13 22
REMARK SMILES IDX 14 23
REMARK H PARENT 14 24 14 25
ROOT
ATOM      1  C   UNL     1       4.304   3.716  26.958  1.00  0.00     0.061 A 
ATOM      2  C   UNL     1       5.317   4.162  26.129  1.00  0.00     0.026 A 
ATOM      3  C   UNL     1       5.551   5.512  26.073  1.00  0.00     0.013 A 
ATOM      4  C   UNL     1       4.782   6.393  26.820  1.00  0.00     0.005 A 
ATOM      5  C   UNL     1       3.789   5.860  27.638  1.00  0.00     0.120 A 
ATOM      6  N   UNL     1       3.573   4.539  27.724  1.00  0.00    -0.259 NA
ENDROOT
BRANCH   1   7
ATOM      7  C   UNL     1       3.975   2.257  27.053  1.00  0.00     0.191 C 
BRANCH   7   8
ATOM      8  N   UNL     1       3.941   1.697  28.398  1.00  0.00    -0.264 N 
BRANCH   8   9
ATOM      9  C   UNL     1       2.779   1.024  28.842  1.00  0.00     0.053 A 
ATOM     10  C   UNL     1       0.774  -0.221  28.513  1.00  0.00     0.043 A 
ATOM     11  C   UNL     1       0.503  -0.238  29.868  1.00  0.00     0.020 A 
ATOM     12  C   UNL     1       1.897   0.402  27.968  1.00  0.00     0.047 A 
ATOM     13  C   UNL     1       1.383   0.397  30.712  1.00  0.00     0.004 A 
ATOM     14  C   UNL     1       2.497   1.042  30.208  1.00  0.00     0.027 A 
ATOM     15  Cl  UNL     1      -0.345  -0.964  27.425  1.00  0.00    -0.084 Cl
ENDBRANCH   8   9
BRANCH   8  16
ATOM     16  S   UNL     1       5.378   1.445  29.107  1.00  0.00     0.232 S 
ATOM     17  C   UNL     1       5.372  -0.254  29.313  1.00  0.00     0.183 C 
ATOM     18  O   UNL     1       5.375   2.039  30.406  1.00  0.00    -0.207 OA
ATOM     19  O   UNL     1       6.404   1.788  28.177  1.00  0.00    -0.207 OA
ENDBRANCH   8  16
ENDBRANCH   7   8
ENDBRANCH   1   7
BRANCH   4  20
ATOM     20  C   UNL     1       5.039   7.850  26.712  1.00  0.00     0.016 C 
ATOM     21  O   UNL     1       5.040   8.596  27.706  1.00  0.00    -0.857 OA
BRANCH  20  22
ATOM     22  N   UNL     1       5.367   8.318  25.509  1.00  0.00    -0.199 NA
BRANCH  22  23
ATOM     23  N   UNL     1       5.438   9.719  25.305  1.00  0.00    -0.324 N 
ATOM     24  H   UNL     1       5.319  10.348  26.086  1.00  0.00     0.179 HD
ATOM     25  H   UNL     1       5.607  10.087  24.380  1.00  0.00     0.179 HD
ENDBRANCH  22  23
ENDBRANCH  20  22
ENDBRANCH   4  20
TORSDOF 7
ENDMDL
MODEL 7
REMARK VINA RESULT:    -8.479      1.979      2.454
REMARK INTER + INTRA:         -11.759
REMARK INTER:                 -10.567
REMARK INTRA:                  -1.192
REMARK CONF_INDEPENDENT:        2.088
REMARK UNBOUND:                -1.192
REMARK SMILES CS(=O)(=O)N(Cc1ccc(/C([O-])=N/N)cn1)c1cccc(Cl)c1
REMARK SMILES IDX 7 1 8 2 9 3 10 4 15 5 16 6 6 7 5 8 17 9 21 10 20 11 23 12
REMARK SMILES IDX 19 13 18 14 22 15 2 16 1 17 3 18 4 19 11 20 12 21 13 22
REMARK SMILES IDX 14 23
REMARK H PARENT 14 24 14 25
ROOT
ATOM      1  C   UNL     1       4.278   3.639  26.565  1.00  0.00     0.061 A 
ATOM      2  C   UNL     1       3.296   4.503  27.012  1.00  0.00     0.026 A 
ATOM      3  C   UNL     1       3.579   5.845  27.022  1.00  0.00     0.013 A 
ATOM      4  C   UNL     1       4.819   6.308  26.605  1.00  0.00     0.005 A 
ATOM      5  C   UNL     1       5.748   5.370  26.159  1.00  0.00     0.120 A 
ATOM      6  N   UNL     1       5.469   4.060  26.115  1.00  0.00    -0.259 NA
ENDROOT
BRANCH   1   7
ATOM      7  C   UNL     1       4.049   2.159  26.547  1.00  0.00     0.191 C 
BRANCH   7   8
ATOM      8  N   UNL     1       3.501   1.582  27.767  1.00  0.00    -0.264 N 
BRANCH   8   9
ATOM      9  C   UNL     1       2.377   0.727  27.689  1.00  0.00     0.053 A 
ATOM     10  C   UNL     1       0.791  -0.616  26.524  1.00  0.00     0.043 A 
ATOM     11  C   UNL     1       0.117  -0.923  27.691  1.00  0.00     0.020 A 
ATOM     12  C   UNL     1       1.918   0.205  26.487  1.00  0.00     0.047 A 
ATOM     13  C   UNL     1       0.581  -0.383  28.867  1.00  0.00     0.004 A 
ATOM     14  C   UNL     1       1.684   0.452  28.868  1.00  0.00     0.027 A 
ATOM     15  Cl  UNL     1       0.195  -1.238  25.025  1.00  0.00    -0.084 Cl
ENDBRANCH   8   9
BRANCH   8  16
ATOM     16  S   UNL     1       4.490   1.551  29.053  1.00  0.00     0.232 S 
ATOM     17  C   UNL     1       3.869   2.833  30.001  1.00  0.00     0.183 C 
ATOM     18  O   UNL     1       5.809   1.915  28.643  1.00  0.00    -0.207 OA
ATOM     19  O   UNL     1       4.281   0.324  29.750  1.00  0.00    -0.207 OA
ENDBRANCH   8  16
ENDBRANCH   7   8
ENDBRANCH   1   7
BRANCH   4  20
ATOM     20  C   UNL     1       5.106   7.762  26.660  1.00  0.00     0.016 C 
ATOM     21  O   UNL     1       5.463   8.325  27.709  1.00  0.00    -0.857 OA
BRANCH  20  22
ATOM     22  N   UNL     1       5.061   8.431  25.509  1.00  0.00    -0.199 NA
BRANCH  22  23
ATOM     23  N   UNL     1       6.187   8.410  24.650  1.00  0.00    -0.324 N 
ATOM     24  H   UNL     1       7.119   8.425  25.039  1.00  0.00     0.179 HD
ATOM     25  H   UNL     1       6.058   8.380  23.649  1.00  0.00     0.179 HD
ENDBRANCH  22  23
ENDBRANCH  20  22
ENDBRANCH   4  20
TORSDOF 7
ENDMDL
MODEL 8
REMARK VINA RESULT:    -8.086      3.044      4.011
REMARK INTER + INTRA:         -12.034
REMARK INTER:                 -10.174
REMARK INTRA:                  -1.860
REMARK CONF_INDEPENDENT:        2.088
REMARK UNBOUND:                -1.860
REMARK SMILES CS(=O)(=O)N(Cc1ccc(/C([O-])=N/N)cn1)c1cccc(Cl)c1
REMARK SMILES IDX 7 1 8 2 9 3 10 4 15 5 16 6 6 7 5 8 17 9 21 10 20 11 23 12
REMARK SMILES IDX 19 13 18 14 22 15 2 16 1 17 3 18 4 19 11 20 12 21 13 22
REMARK SMILES IDX 14 23
REMARK H PARENT 14 24 14 25
ROOT
ATOM      1  C   UNL     1       4.273   3.776  27.252  1.00  0.00     0.061 A 
ATOM      2  C   UNL     1       5.426   4.076  26.552  1.00  0.00     0.026 A 
ATOM      3  C   UNL     1       5.760   5.398  26.404  1.00  0.00     0.013 A 
ATOM      4  C   UNL     1       4.952   6.394  26.935  1.00  0.00     0.005 A 
ATOM      5  C   UNL     1       3.813   6.004  27.636  1.00  0.00     0.120 A 
ATOM      6  N   UNL     1       3.496   4.713  27.814  1.00  0.00    -0.259 NA
ENDROOT
BRANCH   1   7
ATOM      7  C   UNL     1       3.833   2.355  27.435  1.00  0.00     0.191 C 
BRANCH   7   8
ATOM      8  N   UNL     1       4.382   1.660  28.592  1.00  0.00    -0.264 N 
BRANCH   8   9
ATOM      9  C   UNL     1       5.594   0.943  28.462  1.00  0.00     0.053 A 
ATOM     10  C   UNL     1       6.897  -0.958  27.857  1.00  0.00     0.043 A 
ATOM     11  C   UNL     1       8.063  -0.364  28.301  1.00  0.00     0.020 A 
ATOM     12  C   UNL     1       5.650  -0.337  27.926  1.00  0.00     0.047 A 
ATOM     13  C   UNL     1       7.980   0.898  28.841  1.00  0.00     0.004 A 
ATOM     14  C   UNL     1       6.759   1.539  28.944  1.00  0.00     0.027 A 
ATOM     15  Cl  UNL     1       6.965  -2.566  27.224  1.00  0.00    -0.084 Cl
ENDBRANCH   8   9
BRANCH   8  16
ATOM     16  S   UNL     1       3.851   2.153  30.044  1.00  0.00     0.232 S 
ATOM     17  C   UNL     1       4.147   0.771  31.010  1.00  0.00     0.183 C 
ATOM     18  O   UNL     1       2.437   2.348  29.989  1.00  0.00    -0.207 OA
ATOM     19  O   UNL     1       4.692   3.213  30.493  1.00  0.00    -0.207 OA
ENDBRANCH   8  16
ENDBRANCH   7   8
ENDBRANCH   1   7
BRANCH   4  20
ATOM     20  C   UNL     1       5.322   7.815  26.729  1.00  0.00     0.016 C 
ATOM     21  O   UNL     1       5.868   8.491  27.618  1.00  0.00    -0.857 OA
BRANCH  20  22
ATOM     22  N   UNL     1       5.136   8.318  25.509  1.00  0.00    -0.199 NA
BRANCH  22  23
ATOM     23  N   UNL     1       5.434   9.681  25.269  1.00  0.00    -0.324 N 
ATOM     24  H   UNL     1       5.916  10.224  25.971  1.00  0.00     0.179 HD
ATOM     25  H   UNL     1       5.165  10.111  24.394  1.00  0.00     0.179 HD
ENDBRANCH  22  23
ENDBRANCH  20  22
ENDBRANCH   4  20
TORSDOF 7
ENDMDL
MODEL 9
REMARK VINA RESULT:    -6.866      2.178      2.719
REMARK INTER + INTRA:         -10.208
REMARK INTER:                  -8.954
REMARK INTRA:                  -1.254
REMARK CONF_INDEPENDENT:        2.088
REMARK UNBOUND:                -1.254
REMARK SMILES CS(=O)(=O)N(Cc1ccc(/C([O-])=N/N)cn1)c1cccc(Cl)c1
REMARK SMILES IDX 7 1 8 2 9 3 10 4 15 5 16 6 6 7 5 8 17 9 21 10 20 11 23 12
REMARK SMILES IDX 19 13 18 14 22 15 2 16 1 17 3 18 4 19 11 20 12 21 13 22
REMARK SMILES IDX 14 23
REMARK H PARENT 14 24 14 25
ROOT
ATOM      1  C   UNL     1       3.827   4.373  28.026  1.00  0.00     0.061 A 
ATOM      2  C   UNL     1       4.332   4.481  26.744  1.00  0.00     0.026 A 
ATOM      3  C   UNL     1       4.848   5.692  26.359  1.00  0.00     0.013 A 
ATOM      4  C   UNL     1       4.848   6.769  27.233  1.00  0.00     0.005 A 
ATOM      5  C   UNL     1       4.329   6.572  28.511  1.00  0.00     0.120 A 
ATOM      6  N   UNL     1       3.852   5.383  28.908  1.00  0.00    -0.259 NA
ENDROOT
BRANCH   1   7
ATOM      7  C   UNL     1       3.225   3.088  28.510  1.00  0.00     0.191 C 
BRANCH   7   8
ATOM      8  N   UNL     1       4.167   2.025  28.834  1.00  0.00    -0.264 N 
BRANCH   8   9
ATOM      9  C   UNL     1       4.100   1.399  30.101  1.00  0.00     0.053 A 
ATOM     10  C   UNL     1       3.071   0.027  31.755  1.00  0.00     0.043 A 
ATOM     11  C   UNL     1       4.093   0.258  32.656  1.00  0.00     0.020 A 
ATOM     12  C   UNL     1       3.042   0.582  30.475  1.00  0.00     0.047 A 
ATOM     13  C   UNL     1       5.123   1.082  32.268  1.00  0.00     0.004 A 
ATOM     14  C   UNL     1       5.120   1.667  31.014  1.00  0.00     0.027 A 
ATOM     15  Cl  UNL     1       1.737  -0.961  32.237  1.00  0.00    -0.084 Cl
ENDBRANCH   8   9
BRANCH   8  16
ATOM     16  S   UNL     1       4.888   1.297  27.576  1.00  0.00     0.232 S 
ATOM     17  C   UNL     1       6.514   1.795  27.771  1.00  0.00     0.183 C 
ATOM     18  O   UNL     1       4.403   1.866  26.359  1.00  0.00    -0.207 OA
ATOM     19  O   UNL     1       4.816  -0.114  27.773  1.00  0.00    -0.207 OA
ENDBRANCH   8  16
ENDBRANCH   7   8
ENDBRANCH   1   7
BRANCH   4  20
ATOM     20  C   UNL     1       5.383   8.074  26.775  1.00  0.00     0.016 C 
ATOM     21  O   UNL     1       6.071   8.802  27.512  1.00  0.00    -0.857 OA
BRANCH  20  22
ATOM     22  N   UNL     1       5.180   8.397  25.499  1.00  0.00    -0.199 NA
BRANCH  22  23
ATOM     23  N   UNL     1       5.417   9.727  25.074  1.00  0.00    -0.324 N 
ATOM     24  H   UNL     1       5.091  10.502  25.633  1.00  0.00     0.179 HD
ATOM     25  H   UNL     1       5.914   9.901  24.211  1.00  0.00     0.179 HD
ENDBRANCH  22  23
ENDBRANCH  20  22
ENDBRANCH   4  20
TORSDOF 7
ENDMDL
