redock.pdbqt
 OpenBabel02282515213D

 25 26  0  0  0  0  0  0  0  0999 V2000
    3.9340    0.4500   29.1360 C   0  0  0  0  0  0  0  0  0  0  0  0
    5.1300    0.0580   28.5650 C   0  0  0  0  0  3  0  0  0  0  0  0
    6.1880   -0.1890   29.4010 C   0  0  0  0  0  3  0  0  0  0  0  0
    6.0540   -0.0360   30.7740 C   0  0  0  0  0  0  0  0  0  0  0  0
    4.8100    0.3530   31.2670 C   0  0  0  0  0  3  0  0  0  0  0  0
    3.7610    0.5650   30.4610 N   0  0  0  0  0  0  0  0  0  0  0  0
    2.7400    0.7590   28.2840 C   0  0  0  0  0  2  0  0  0  0  0  0
    2.9020    1.8440   27.3260 N   0  0  0  0  0  0  0  0  0  0  0  0
    3.3740    3.1010   27.7720 C   0  0  0  0  0  0  0  0  0  0  0  0
    4.3480    5.2520   27.4560 C   0  0  0  0  0  0  0  0  0  0  0  0
    4.2990    5.5300   28.8090 C   0  0  0  0  0  3  0  0  0  0  0  0
    3.8990    4.0510   26.9060 C   0  0  0  0  0  3  0  0  0  0  0  0
    3.7880    4.5680   29.6480 C   0  0  0  0  0  3  0  0  0  0  0  0
    3.3510    3.3570   29.1430 C   0  0  0  0  0  3  0  0  0  0  0  0
    5.0370    6.4230   26.3860 Cl  0  0  0  0  0  0  0  0  0  0  0  0
    3.0110    1.4140   25.7650 S   0  0  0  0  0  0  0  0  0  0  0  0
    3.1920   -0.2840   25.8830 C   0  0  0  0  0  1  0  0  0  0  0  0
    4.2180    1.9410   25.2130 O   0  0  0  0  0  0  0  0  0  0  0  0
    1.7640    1.6980   25.1340 O   0  0  0  0  0  0  0  0  0  0  0  0
    7.2270   -0.2770   31.6480 C   0  0  0  0  0  0  0  0  0  0  0  0
    7.1810   -1.0590   32.6130 O   0  0  0  0  0  0  0  0  0  0  0  0
    8.3720    0.3060   31.2980 N   0  0  0  0  0  2  0  0  0  0  0  0
    8.3490    1.3900   30.3870 N   0  0  0  0  0  0  0  0  0  0  0  0
    8.2840    1.2130   29.3950 H   0  0  0  0  0  0  0  0  0  0  0  0
    8.3970    2.3390   30.7300 H   0  0  0  0  0  0  0  0  0  0  0  0
  1  6  1  0  0  0  0
  2  1  2  0  0  0  0
  2  3  1  0  0  0  0
  3  4  2  0  0  0  0
  4  5  1  0  0  0  0
  4 20  1  0  0  0  0
  6  5  2  0  0  0  0
  7  1  1  0  0  0  0
  8  9  1  0  0  0  0
  8  7  1  0  0  0  0
  9 14  1  0  0  0  0
 10 11  2  0  0  0  0
 11 13  1  0  0  0  0
 12 10  1  0  0  0  0
 12  9  2  0  0  0  0
 14 13  2  0  0  0  0
 15 10  1  0  0  0  0
 16 17  1  0  0  0  0
 16  8  1  0  0  0  0
 18 16  2  0  0  0  0
 19 16  2  0  0  0  0
 20 21  2  0  0  0  0
 22 20  1  0  0  0  0
 23 25  1  0  0  0  0
 23 22  1  0  0  0  0
 24 23  1  0  0  0  0
M  END
>  <REMARK>
 SMILES CS(=O)(=O)N(Cc1ccc(/C([O-])=N/N)cn1)c1cccc(Cl)c1
 SMILES IDX 7 1 8 2 9 3 10 4 15 5 16 6 6 7 5 8 17 9 21 10 20 11 23 12
 SMILES IDX 19 13 18 14 22 15 2 16 1 17 3 18 4 19 11 20 12 21 13 22
 SMILES IDX 14 23
 H PARENT 14 24 14 25

>  <TORSDO>
F 7

$$$$
