redock.pdbqt
 OpenBabel03012515533D

 25 26  0  0  0  0  0  0  0  0999 V2000
    4.9790    3.6560   27.2330 C   0  0  0  0  0  0  0  0  0  0  0  0
    4.1200    4.4050   28.0150 C   0  0  0  0  0  3  0  0  0  0  0  0
    4.1060    5.7640   27.8310 C   0  0  0  0  0  3  0  0  0  0  0  0
    4.9390    6.3580   26.8930 C   0  0  0  0  0  0  0  0  0  0  0  0
    5.7670    5.5280   26.1390 C   0  0  0  0  0  3  0  0  0  0  0  0
    5.7650    4.1960   26.2900 N   0  0  0  0  0  0  0  0  0  0  0  0
    5.0660    2.1690   27.3950 C   0  0  0  0  0  2  0  0  0  0  0  0
    3.8910    1.4120   26.9850 N   0  0  0  0  0  0  0  0  0  0  0  0
    2.9730    0.9670   27.9650 C   0  0  0  0  0  0  0  0  0  0  0  0
    0.9620   -0.0870   28.6870 C   0  0  0  0  0  0  0  0  0  0  0  0
    1.2390    0.1800   30.0140 C   0  0  0  0  0  3  0  0  0  0  0  0
    1.8030    0.2940   27.6410 C   0  0  0  0  0  3  0  0  0  0  0  0
    2.3960    0.8610   30.3090 C   0  0  0  0  0  3  0  0  0  0  0  0
    3.2450    1.2730   29.2990 C   0  0  0  0  0  3  0  0  0  0  0  0
   -0.5130   -0.8940   28.2840 Cl  0  0  0  0  0  0  0  0  0  0  0  0
    3.4530    1.5530   25.4290 S   0  0  0  0  0  0  0  0  0  0  0  0
    3.5390   -0.0710   24.8940 C   0  0  0  0  0  1  0  0  0  0  0  0
    4.4490    2.2940   24.7230 O   0  0  0  0  0  0  0  0  0  0  0  0
    2.0930    1.9780   25.3820 O   0  0  0  0  0  0  0  0  0  0  0  0
    4.9240    7.8320   26.7420 C   0  0  0  0  0  0  0  0  0  0  0  0
    4.8780    8.5970   27.7210 O   0  0  0  0  0  0  0  0  0  0  0  0
    5.0610    8.3150   25.5080 N   0  0  0  0  0  2  0  0  0  0  0  0
    5.3900    9.6820   25.3310 N   0  0  0  0  0  0  0  0  0  0  0  0
    5.7540   10.0030   24.4450 H   0  0  0  0  0  0  0  0  0  0  0  0
    5.2590   10.3360   26.0900 H   0  0  0  0  0  0  0  0  0  0  0  0
  1  7  1  0  0  0  0
  1  2  1  0  0  0  0
  3  2  2  0  0  0  0
  4  3  1  0  0  0  0
  5  6  1  0  0  0  0
  5  4  2  0  0  0  0
  6  1  2  0  0  0  0
  8  7  1  0  0  0  0
  8  9  1  0  0  0  0
  9 14  1  0  0  0  0
 10 11  2  0  0  0  0
 11 13  1  0  0  0  0
 12  9  2  0  0  0  0
 12 10  1  0  0  0  0
 14 13  2  0  0  0  0
 15 10  1  0  0  0  0
 16  8  1  0  0  0  0
 17 16  1  0  0  0  0
 18 16  2  0  0  0  0
 19 16  2  0  0  0  0
 20  4  1  0  0  0  0
 20 21  2  0  0  0  0
 22 20  1  0  0  0  0
 23 22  1  0  0  0  0
 23 25  1  0  0  0  0
 24 23  1  0  0  0  0
M  END
>  <MODEL>
1

>  <REMARK>
 VINA RESULT:    -9.496      0.000      0.000
 INTER + INTRA:         -13.291
 INTER:                 -11.584
 INTRA:                  -1.706
 CONF_INDEPENDENT:        2.088
 UNBOUND:                -1.706
 SMILES CS(=O)(=O)N(Cc1ccc(/C([O-])=N/N)cn1)c1cccc(Cl)c1
 SMILES IDX 7 1 8 2 9 3 10 4 15 5 16 6 6 7 5 8 17 9 21 10 20 11 23 12
 SMILES IDX 19 13 18 14 22 15 2 16 1 17 3 18 4 19 11 20 12 21 13 22
 SMILES IDX 14 23
 H PARENT 14 24 14 25

>  <TORSDO>
F 7

$$$$
redock.pdbqt
 OpenBabel03012515533D

 25 26  0  0  0  0  0  0  0  0999 V2000
    4.8440    3.7900   27.5270 C   0  0  0  0  0  0  0  0  0  0  0  0
    4.1060    4.6270   28.3420 C   0  0  0  0  0  3  0  0  0  0  0  0
    4.1220    5.9700   28.0630 C   0  0  0  0  0  3  0  0  0  0  0  0
    4.8680    6.4610   27.0010 C   0  0  0  0  0  0  0  0  0  0  0  0
    5.5750    5.5470   26.2230 C   0  0  0  0  0  3  0  0  0  0  0  0
    5.5400    4.2290   26.4680 N   0  0  0  0  0  0  0  0  0  0  0  0
    4.8930    2.3140   27.7840 C   0  0  0  0  0  2  0  0  0  0  0  0
    3.6050    1.6480   27.9270 N   0  0  0  0  0  0  0  0  0  0  0  0
    2.9940    1.0640   26.7920 C   0  0  0  0  0  0  0  0  0  0  0  0
    1.3860   -0.3180   25.7060 C   0  0  0  0  0  0  0  0  0  0  0  0
    1.9160   -0.0420   24.4600 C   0  0  0  0  0  3  0  0  0  0  0  0
    1.9010    0.2130   26.8880 C   0  0  0  0  0  3  0  0  0  0  0  0
    3.0080    0.7920   24.3910 C   0  0  0  0  0  3  0  0  0  0  0  0
    3.5580    1.3220   25.5430 C   0  0  0  0  0  3  0  0  0  0  0  0
    0.0480   -1.4060   25.8240 Cl  0  0  0  0  0  0  0  0  0  0  0  0
    3.1980    1.1880   29.4280 S   0  0  0  0  0  0  0  0  0  0  0  0
    3.8940   -0.3730   29.5160 C   0  0  0  0  0  1  0  0  0  0  0  0
    1.7800    1.0350   29.5070 O   0  0  0  0  0  0  0  0  0  0  0  0
    3.8670    2.0400   30.3560 O   0  0  0  0  0  0  0  0  0  0  0  0
    4.8920    7.9220   26.7470 C   0  0  0  0  0  0  0  0  0  0  0  0
    4.7370    8.7540   27.6580 O   0  0  0  0  0  0  0  0  0  0  0  0
    5.1850    8.3160   25.5090 N   0  0  0  0  0  2  0  0  0  0  0  0
    5.3950    9.6930   25.2510 N   0  0  0  0  0  0  0  0  0  0  0  0
    5.8110    9.9860   24.3790 H   0  0  0  0  0  0  0  0  0  0  0  0
    5.1280   10.3830   25.9400 H   0  0  0  0  0  0  0  0  0  0  0  0
  1  7  1  0  0  0  0
  1  2  1  0  0  0  0
  3  2  2  0  0  0  0
  4  3  1  0  0  0  0
  5  6  1  0  0  0  0
  5  4  2  0  0  0  0
  6  1  2  0  0  0  0
  7  8  1  0  0  0  0
  8 16  1  0  0  0  0
  9 12  1  0  0  0  0
  9  8  1  0  0  0  0
 10 15  1  0  0  0  0
 10 12  2  0  0  0  0
 11 10  1  0  0  0  0
 13 11  2  0  0  0  0
 13 14  1  0  0  0  0
 14  9  2  0  0  0  0
 16 18  2  0  0  0  0
 16 17  1  0  0  0  0
 16 19  2  0  0  0  0
 20  4  1  0  0  0  0
 20 21  2  0  0  0  0
 22 20  1  0  0  0  0
 23 22  1  0  0  0  0
 23 25  1  0  0  0  0
 24 23  1  0  0  0  0
M  END
>  <MODEL>
2

>  <REMARK>
 VINA RESULT:    -9.240      2.052      2.932
 INTER + INTRA:         -12.985
 INTER:                 -11.328
 INTRA:                  -1.657
 CONF_INDEPENDENT:        2.088
 UNBOUND:                -1.657
 SMILES CS(=O)(=O)N(Cc1ccc(/C([O-])=N/N)cn1)c1cccc(Cl)c1
 SMILES IDX 7 1 8 2 9 3 10 4 15 5 16 6 6 7 5 8 17 9 21 10 20 11 23 12
 SMILES IDX 19 13 18 14 22 15 2 16 1 17 3 18 4 19 11 20 12 21 13 22
 SMILES IDX 14 23
 H PARENT 14 24 14 25

>  <TORSDO>
F 7

$$$$
redock.pdbqt
 OpenBabel03012515533D

 25 26  0  0  0  0  0  0  0  0999 V2000
    4.0650    4.0780   27.7840 C   0  0  0  0  0  0  0  0  0  0  0  0
    4.8610    4.2910   26.6750 C   0  0  0  0  0  3  0  0  0  0  0  0
    5.2170    5.5820   26.3800 C   0  0  0  0  0  3  0  0  0  0  0  0
    4.7760    6.6340   27.1710 C   0  0  0  0  0  0  0  0  0  0  0  0
    3.9860    6.3300   28.2770 C   0  0  0  0  0  3  0  0  0  0  0  0
    3.6600    5.0680   28.5920 N   0  0  0  0  0  0  0  0  0  0  0  0
    3.6180    2.6960   28.1560 C   0  0  0  0  0  2  0  0  0  0  0  0
    4.4740    1.6060   27.7080 N   0  0  0  0  0  0  0  0  0  0  0  0
    5.5160    1.1490   28.5490 C   0  0  0  0  0  0  0  0  0  0  0  0
    6.5730    0.8310   30.6600 C   0  0  0  0  0  0  0  0  0  0  0  0
    7.6680    0.2220   30.0770 C   0  0  0  0  0  3  0  0  0  0  0  0
    5.4850    1.3070   29.9280 C   0  0  0  0  0  3  0  0  0  0  0  0
    7.6820    0.0900   28.7090 C   0  0  0  0  0  3  0  0  0  0  0  0
    6.6310    0.5670   27.9470 C   0  0  0  0  0  3  0  0  0  0  0  0
    6.5560    1.0590   32.3740 Cl  0  0  0  0  0  0  0  0  0  0  0  0
    3.8830    0.6710   26.5210 S   0  0  0  0  0  0  0  0  0  0  0  0
    2.3010    0.3470   27.0870 C   0  0  0  0  0  1  0  0  0  0  0  0
    4.5960   -0.5670   26.4960 O   0  0  0  0  0  0  0  0  0  0  0  0
    3.7920    1.4560   25.3350 O   0  0  0  0  0  0  0  0  0  0  0  0
    5.1510    8.0210   26.8060 C   0  0  0  0  0  0  0  0  0  0  0  0
    5.5340    8.8470   27.6530 O   0  0  0  0  0  0  0  0  0  0  0  0
    5.1550    8.3250   25.5090 N   0  0  0  0  0  2  0  0  0  0  0  0
    5.4880    9.6420   25.1070 N   0  0  0  0  0  0  0  0  0  0  0  0
    5.8140    9.8160   24.1670 H   0  0  0  0  0  0  0  0  0  0  0  0
    5.3980   10.4080   25.7600 H   0  0  0  0  0  0  0  0  0  0  0  0
  1  7  1  0  0  0  0
  1  6  1  0  0  0  0
  2  1  2  0  0  0  0
  3  2  1  0  0  0  0
  3  4  2  0  0  0  0
  4  5  1  0  0  0  0
  5  6  2  0  0  0  0
  8  7  1  0  0  0  0
  8  9  1  0  0  0  0
  9 12  1  0  0  0  0
 10 15  1  0  0  0  0
 11 10  1  0  0  0  0
 12 10  2  0  0  0  0
 13 11  2  0  0  0  0
 14  9  2  0  0  0  0
 14 13  1  0  0  0  0
 16 17  1  0  0  0  0
 16  8  1  0  0  0  0
 18 16  2  0  0  0  0
 19 16  2  0  0  0  0
 20  4  1  0  0  0  0
 20 21  2  0  0  0  0
 22 20  1  0  0  0  0
 23 22  1  0  0  0  0
 23 25  1  0  0  0  0
 24 23  1  0  0  0  0
M  END
>  <MODEL>
3

>  <REMARK>
 VINA RESULT:    -9.234      2.639      3.448
 INTER + INTRA:         -12.921
 INTER:                 -11.322
 INTRA:                  -1.599
 CONF_INDEPENDENT:        2.088
 UNBOUND:                -1.599
 SMILES CS(=O)(=O)N(Cc1ccc(/C([O-])=N/N)cn1)c1cccc(Cl)c1
 SMILES IDX 7 1 8 2 9 3 10 4 15 5 16 6 6 7 5 8 17 9 21 10 20 11 23 12
 SMILES IDX 19 13 18 14 22 15 2 16 1 17 3 18 4 19 11 20 12 21 13 22
 SMILES IDX 14 23
 H PARENT 14 24 14 25

>  <TORSDO>
F 7

$$$$
redock.pdbqt
 OpenBabel03012515533D

 25 26  0  0  0  0  0  0  0  0999 V2000
    3.9420    4.2690   27.3130 C   0  0  0  0  0  0  0  0  0  0  0  0
    4.9150    4.4550   26.3500 C   0  0  0  0  0  3  0  0  0  0  0  0
    5.4090    5.7230   26.1760 C   0  0  0  0  0  3  0  0  0  0  0  0
    4.9320    6.7780   26.9400 C   0  0  0  0  0  0  0  0  0  0  0  0
    3.9570    6.5010   27.8970 C   0  0  0  0  0  3  0  0  0  0  0  0
    3.4910    5.2590   28.0960 N   0  0  0  0  0  0  0  0  0  0  0  0
    3.3380    2.9170   27.5440 C   0  0  0  0  0  2  0  0  0  0  0  0
    4.2240    1.7780   27.3400 N   0  0  0  0  0  0  0  0  0  0  0  0
    5.1060    1.3890   28.3750 C   0  0  0  0  0  0  0  0  0  0  0  0
    7.1610    0.5280   29.2210 C   0  0  0  0  0  0  0  0  0  0  0  0
    6.7220    0.6260   30.5280 C   0  0  0  0  0  3  0  0  0  0  0  0
    6.3800    0.8960   28.1250 C   0  0  0  0  0  3  0  0  0  0  0  0
    5.4520    1.1030   30.7500 C   0  0  0  0  0  3  0  0  0  0  0  0
    4.6410    1.4600   29.6890 C   0  0  0  0  0  3  0  0  0  0  0  0
    8.7330   -0.1210   28.9110 Cl  0  0  0  0  0  0  0  0  0  0  0  0
    3.8050    0.7440   26.1630 S   0  0  0  0  0  0  0  0  0  0  0  0
    2.3250    0.1220   26.7560 C   0  0  0  0  0  1  0  0  0  0  0  0
    4.7430   -0.3320   26.1230 O   0  0  0  0  0  0  0  0  0  0  0  0
    3.5430    1.4940   24.9780 O   0  0  0  0  0  0  0  0  0  0  0  0
    5.4630    8.1420   26.7040 C   0  0  0  0  0  0  0  0  0  0  0  0
    6.1630    8.7320   27.5440 O   0  0  0  0  0  0  0  0  0  0  0  0
    5.2400    8.6790   25.5060 N   0  0  0  0  0  2  0  0  0  0  0  0
    5.4620   10.0650   25.3150 N   0  0  0  0  0  0  0  0  0  0  0  0
    5.4090   10.4620   24.3880 H   0  0  0  0  0  0  0  0  0  0  0  0
    5.6720   10.6570   26.1070 H   0  0  0  0  0  0  0  0  0  0  0  0
  1  7  1  0  0  0  0
  1  6  1  0  0  0  0
  2  1  2  0  0  0  0
  3  2  1  0  0  0  0
  3  4  2  0  0  0  0
  4  5  1  0  0  0  0
  5  6  2  0  0  0  0
  8  7  1  0  0  0  0
  8  9  1  0  0  0  0
  9 14  1  0  0  0  0
 10 11  2  0  0  0  0
 11 13  1  0  0  0  0
 12  9  2  0  0  0  0
 12 10  1  0  0  0  0
 14 13  2  0  0  0  0
 15 10  1  0  0  0  0
 16 17  1  0  0  0  0
 16  8  1  0  0  0  0
 18 16  2  0  0  0  0
 19 16  2  0  0  0  0
 20  4  1  0  0  0  0
 20 21  2  0  0  0  0
 22 20  1  0  0  0  0
 23 22  1  0  0  0  0
 23 25  1  0  0  0  0
 24 23  1  0  0  0  0
M  END
>  <MODEL>
4

>  <REMARK>
 VINA RESULT:    -9.099      2.610      3.262
 INTER + INTRA:         -12.855
 INTER:                 -11.187
 INTRA:                  -1.668
 CONF_INDEPENDENT:        2.088
 UNBOUND:                -1.668
 SMILES CS(=O)(=O)N(Cc1ccc(/C([O-])=N/N)cn1)c1cccc(Cl)c1
 SMILES IDX 7 1 8 2 9 3 10 4 15 5 16 6 6 7 5 8 17 9 21 10 20 11 23 12
 SMILES IDX 19 13 18 14 22 15 2 16 1 17 3 18 4 19 11 20 12 21 13 22
 SMILES IDX 14 23
 H PARENT 14 24 14 25

>  <TORSDO>
F 7

$$$$
redock.pdbqt
 OpenBabel03012515533D

 25 26  0  0  0  0  0  0  0  0999 V2000
    3.9470    4.2500   28.1260 C   0  0  0  0  0  0  0  0  0  0  0  0
    3.8170    5.3580   28.9420 C   0  0  0  0  0  3  0  0  0  0  0  0
    4.2840    6.5590   28.4710 C   0  0  0  0  0  3  0  0  0  0  0  0
    4.8760    6.6430   27.2180 C   0  0  0  0  0  0  0  0  0  0  0  0
    4.9580    5.4800   26.4560 C   0  0  0  0  0  3  0  0  0  0  0  0
    4.4750    4.3090   26.8950 N   0  0  0  0  0  0  0  0  0  0  0  0
    3.4800    2.9010   28.5820 C   0  0  0  0  0  2  0  0  0  0  0  0
    4.0460    1.7580   27.8780 N   0  0  0  0  0  0  0  0  0  0  0  0
    3.4070    1.2730   26.7140 C   0  0  0  0  0  0  0  0  0  0  0  0
    1.7120    0.0660   25.5520 C   0  0  0  0  0  0  0  0  0  0  0  0
    2.2760    0.3550   24.3240 C   0  0  0  0  0  3  0  0  0  0  0  0
    2.2510    0.5040   26.7620 C   0  0  0  0  0  3  0  0  0  0  0  0
    3.4280    1.1050   24.3030 C   0  0  0  0  0  3  0  0  0  0  0  0
    4.0030    1.5420   25.4820 C   0  0  0  0  0  3  0  0  0  0  0  0
    0.2940   -0.9220   25.6100 Cl  0  0  0  0  0  0  0  0  0  0  0  0
    5.6080    1.4340   28.1740 S   0  0  0  0  0  0  0  0  0  0  0  0
    5.6360    1.3860   29.8850 C   0  0  0  0  0  1  0  0  0  0  0  0
    6.4070    2.5420   27.7590 O   0  0  0  0  0  0  0  0  0  0  0  0
    5.8970    0.1290   27.6760 O   0  0  0  0  0  0  0  0  0  0  0  0
    5.4020    7.9490   26.7520 C   0  0  0  0  0  0  0  0  0  0  0  0
    6.1700    8.6380   27.4460 O   0  0  0  0  0  0  0  0  0  0  0  0
    5.0950    8.3160   25.5090 N   0  0  0  0  0  2  0  0  0  0  0  0
    5.3950    9.6330   25.0800 N   0  0  0  0  0  0  0  0  0  0  0  0
    6.1870   10.1220   25.4710 H   0  0  0  0  0  0  0  0  0  0  0  0
    4.8160   10.0810   24.3840 H   0  0  0  0  0  0  0  0  0  0  0  0
  1  7  1  0  0  0  0
  1  2  1  0  0  0  0
  3  2  2  0  0  0  0
  4  3  1  0  0  0  0
  5  6  1  0  0  0  0
  5  4  2  0  0  0  0
  6  1  2  0  0  0  0
  8 16  1  0  0  0  0
  8  7  1  0  0  0  0
  9 12  1  0  0  0  0
  9  8  1  0  0  0  0
 10 15  1  0  0  0  0
 10 12  2  0  0  0  0
 11 10  1  0  0  0  0
 13 11  2  0  0  0  0
 13 14  1  0  0  0  0
 14  9  2  0  0  0  0
 16 17  1  0  0  0  0
 18 16  2  0  0  0  0
 19 16  2  0  0  0  0
 20  4  1  0  0  0  0
 20 21  2  0  0  0  0
 22 20  1  0  0  0  0
 23 24  1  0  0  0  0
 23 22  1  0  0  0  0
 25 23  1  0  0  0  0
M  END
>  <MODEL>
5

>  <REMARK>
 VINA RESULT:    -9.066      2.118      2.967
 INTER + INTRA:         -12.935
 INTER:                 -11.154
 INTRA:                  -1.780
 CONF_INDEPENDENT:        2.088
 UNBOUND:                -1.780
 SMILES CS(=O)(=O)N(Cc1ccc(/C([O-])=N/N)cn1)c1cccc(Cl)c1
 SMILES IDX 7 1 8 2 9 3 10 4 15 5 16 6 6 7 5 8 17 9 21 10 20 11 23 12
 SMILES IDX 19 13 18 14 22 15 2 16 1 17 3 18 4 19 11 20 12 21 13 22
 SMILES IDX 14 23
 H PARENT 14 24 14 25

>  <TORSDO>
F 7

$$$$
redock.pdbqt
 OpenBabel03012515533D

 25 26  0  0  0  0  0  0  0  0999 V2000
    4.3040    3.7160   26.9580 C   0  0  0  0  0  0  0  0  0  0  0  0
    5.3170    4.1620   26.1290 C   0  0  0  0  0  3  0  0  0  0  0  0
    5.5510    5.5120   26.0730 C   0  0  0  0  0  3  0  0  0  0  0  0
    4.7820    6.3930   26.8200 C   0  0  0  0  0  0  0  0  0  0  0  0
    3.7890    5.8600   27.6380 C   0  0  0  0  0  3  0  0  0  0  0  0
    3.5730    4.5390   27.7240 N   0  0  0  0  0  0  0  0  0  0  0  0
    3.9750    2.2570   27.0530 C   0  0  0  0  0  2  0  0  0  0  0  0
    3.9410    1.6970   28.3980 N   0  0  0  0  0  0  0  0  0  0  0  0
    2.7790    1.0240   28.8420 C   0  0  0  0  0  0  0  0  0  0  0  0
    0.7740   -0.2210   28.5130 C   0  0  0  0  0  0  0  0  0  0  0  0
    0.5030   -0.2380   29.8680 C   0  0  0  0  0  3  0  0  0  0  0  0
    1.8970    0.4020   27.9680 C   0  0  0  0  0  3  0  0  0  0  0  0
    1.3830    0.3970   30.7120 C   0  0  0  0  0  3  0  0  0  0  0  0
    2.4970    1.0420   30.2080 C   0  0  0  0  0  3  0  0  0  0  0  0
   -0.3450   -0.9640   27.4250 Cl  0  0  0  0  0  0  0  0  0  0  0  0
    5.3780    1.4450   29.1070 S   0  0  0  0  0  0  0  0  0  0  0  0
    5.3720   -0.2540   29.3130 C   0  0  0  0  0  1  0  0  0  0  0  0
    5.3750    2.0390   30.4060 O   0  0  0  0  0  0  0  0  0  0  0  0
    6.4040    1.7880   28.1770 O   0  0  0  0  0  0  0  0  0  0  0  0
    5.0390    7.8500   26.7120 C   0  0  0  0  0  0  0  0  0  0  0  0
    5.0400    8.5960   27.7060 O   0  0  0  0  0  0  0  0  0  0  0  0
    5.3670    8.3180   25.5090 N   0  0  0  0  0  2  0  0  0  0  0  0
    5.4380    9.7190   25.3050 N   0  0  0  0  0  0  0  0  0  0  0  0
    5.3190   10.3480   26.0860 H   0  0  0  0  0  0  0  0  0  0  0  0
    5.6070   10.0870   24.3800 H   0  0  0  0  0  0  0  0  0  0  0  0
  1  7  1  0  0  0  0
  1  6  1  0  0  0  0
  2  1  2  0  0  0  0
  3  2  1  0  0  0  0
  3  4  2  0  0  0  0
  4  5  1  0  0  0  0
  5  6  2  0  0  0  0
  7  8  1  0  0  0  0
  8  9  1  0  0  0  0
  8 16  1  0  0  0  0
  9 14  1  0  0  0  0
 10 11  2  0  0  0  0
 11 13  1  0  0  0  0
 12 10  1  0  0  0  0
 12  9  2  0  0  0  0
 14 13  2  0  0  0  0
 15 10  1  0  0  0  0
 16 17  1  0  0  0  0
 16 18  2  0  0  0  0
 19 16  2  0  0  0  0
 20  4  1  0  0  0  0
 20 21  2  0  0  0  0
 22 20  1  0  0  0  0
 23 22  1  0  0  0  0
 23 24  1  0  0  0  0
 25 23  1  0  0  0  0
M  END
>  <MODEL>
6

>  <REMARK>
 VINA RESULT:    -8.533      1.967      2.403
 INTER + INTRA:         -12.320
 INTER:                 -10.621
 INTRA:                  -1.699
 CONF_INDEPENDENT:        2.088
 UNBOUND:                -1.699
 SMILES CS(=O)(=O)N(Cc1ccc(/C([O-])=N/N)cn1)c1cccc(Cl)c1
 SMILES IDX 7 1 8 2 9 3 10 4 15 5 16 6 6 7 5 8 17 9 21 10 20 11 23 12
 SMILES IDX 19 13 18 14 22 15 2 16 1 17 3 18 4 19 11 20 12 21 13 22
 SMILES IDX 14 23
 H PARENT 14 24 14 25

>  <TORSDO>
F 7

$$$$
redock.pdbqt
 OpenBabel03012515533D

 25 26  0  0  0  0  0  0  0  0999 V2000
    4.2780    3.6390   26.5650 C   0  0  0  0  0  0  0  0  0  0  0  0
    3.2960    4.5030   27.0120 C   0  0  0  0  0  3  0  0  0  0  0  0
    3.5790    5.8450   27.0220 C   0  0  0  0  0  3  0  0  0  0  0  0
    4.8190    6.3080   26.6050 C   0  0  0  0  0  0  0  0  0  0  0  0
    5.7480    5.3700   26.1590 C   0  0  0  0  0  3  0  0  0  0  0  0
    5.4690    4.0600   26.1150 N   0  0  0  0  0  0  0  0  0  0  0  0
    4.0490    2.1590   26.5470 C   0  0  0  0  0  2  0  0  0  0  0  0
    3.5010    1.5820   27.7670 N   0  0  0  0  0  0  0  0  0  0  0  0
    2.3770    0.7270   27.6890 C   0  0  0  0  0  0  0  0  0  0  0  0
    0.7910   -0.6160   26.5240 C   0  0  0  0  0  0  0  0  0  0  0  0
    0.1170   -0.9230   27.6910 C   0  0  0  0  0  3  0  0  0  0  0  0
    1.9180    0.2050   26.4870 C   0  0  0  0  0  3  0  0  0  0  0  0
    0.5810   -0.3830   28.8670 C   0  0  0  0  0  3  0  0  0  0  0  0
    1.6840    0.4520   28.8680 C   0  0  0  0  0  3  0  0  0  0  0  0
    0.1950   -1.2380   25.0250 Cl  0  0  0  0  0  0  0  0  0  0  0  0
    4.4900    1.5510   29.0530 S   0  0  0  0  0  0  0  0  0  0  0  0
    3.8690    2.8330   30.0010 C   0  0  0  0  0  1  0  0  0  0  0  0
    5.8090    1.9150   28.6430 O   0  0  0  0  0  0  0  0  0  0  0  0
    4.2810    0.3240   29.7500 O   0  0  0  0  0  0  0  0  0  0  0  0
    5.1060    7.7620   26.6600 C   0  0  0  0  0  0  0  0  0  0  0  0
    5.4630    8.3250   27.7090 O   0  0  0  0  0  0  0  0  0  0  0  0
    5.0610    8.4310   25.5090 N   0  0  0  0  0  2  0  0  0  0  0  0
    6.1870    8.4100   24.6500 N   0  0  0  0  0  0  0  0  0  0  0  0
    7.1190    8.4250   25.0390 H   0  0  0  0  0  0  0  0  0  0  0  0
    6.0580    8.3800   23.6490 H   0  0  0  0  0  0  0  0  0  0  0  0
  1  2  1  0  0  0  0
  2  3  2  0  0  0  0
  4 20  1  0  0  0  0
  4  3  1  0  0  0  0
  5  4  2  0  0  0  0
  6  5  1  0  0  0  0
  6  1  2  0  0  0  0
  7  1  1  0  0  0  0
  7  8  1  0  0  0  0
  8 16  1  0  0  0  0
  9  8  1  0  0  0  0
  9 14  1  0  0  0  0
 10 11  2  0  0  0  0
 11 13  1  0  0  0  0
 12 10  1  0  0  0  0
 12  9  2  0  0  0  0
 13 14  2  0  0  0  0
 15 10  1  0  0  0  0
 16 19  2  0  0  0  0
 16 17  1  0  0  0  0
 18 16  2  0  0  0  0
 20 21  2  0  0  0  0
 22 20  1  0  0  0  0
 23 24  1  0  0  0  0
 23 22  1  0  0  0  0
 25 23  1  0  0  0  0
M  END
>  <MODEL>
7

>  <REMARK>
 VINA RESULT:    -8.479      1.979      2.454
 INTER + INTRA:         -11.759
 INTER:                 -10.567
 INTRA:                  -1.192
 CONF_INDEPENDENT:        2.088
 UNBOUND:                -1.192
 SMILES CS(=O)(=O)N(Cc1ccc(/C([O-])=N/N)cn1)c1cccc(Cl)c1
 SMILES IDX 7 1 8 2 9 3 10 4 15 5 16 6 6 7 5 8 17 9 21 10 20 11 23 12
 SMILES IDX 19 13 18 14 22 15 2 16 1 17 3 18 4 19 11 20 12 21 13 22
 SMILES IDX 14 23
 H PARENT 14 24 14 25

>  <TORSDO>
F 7

$$$$
redock.pdbqt
 OpenBabel03012515533D

 25 26  0  0  0  0  0  0  0  0999 V2000
    4.2730    3.7760   27.2520 C   0  0  0  0  0  0  0  0  0  0  0  0
    5.4260    4.0760   26.5520 C   0  0  0  0  0  3  0  0  0  0  0  0
    5.7600    5.3980   26.4040 C   0  0  0  0  0  3  0  0  0  0  0  0
    4.9520    6.3940   26.9350 C   0  0  0  0  0  0  0  0  0  0  0  0
    3.8130    6.0040   27.6360 C   0  0  0  0  0  3  0  0  0  0  0  0
    3.4960    4.7130   27.8140 N   0  0  0  0  0  0  0  0  0  0  0  0
    3.8330    2.3550   27.4350 C   0  0  0  0  0  2  0  0  0  0  0  0
    4.3820    1.6600   28.5920 N   0  0  0  0  0  0  0  0  0  0  0  0
    5.5940    0.9430   28.4620 C   0  0  0  0  0  0  0  0  0  0  0  0
    6.8970   -0.9580   27.8570 C   0  0  0  0  0  0  0  0  0  0  0  0
    8.0630   -0.3640   28.3010 C   0  0  0  0  0  3  0  0  0  0  0  0
    5.6500   -0.3370   27.9260 C   0  0  0  0  0  3  0  0  0  0  0  0
    7.9800    0.8980   28.8410 C   0  0  0  0  0  3  0  0  0  0  0  0
    6.7590    1.5390   28.9440 C   0  0  0  0  0  3  0  0  0  0  0  0
    6.9650   -2.5660   27.2240 Cl  0  0  0  0  0  0  0  0  0  0  0  0
    3.8510    2.1530   30.0440 S   0  0  0  0  0  0  0  0  0  0  0  0
    4.1470    0.7710   31.0100 C   0  0  0  0  0  1  0  0  0  0  0  0
    2.4370    2.3480   29.9890 O   0  0  0  0  0  0  0  0  0  0  0  0
    4.6920    3.2130   30.4930 O   0  0  0  0  0  0  0  0  0  0  0  0
    5.3220    7.8150   26.7290 C   0  0  0  0  0  0  0  0  0  0  0  0
    5.8680    8.4910   27.6180 O   0  0  0  0  0  0  0  0  0  0  0  0
    5.1360    8.3180   25.5090 N   0  0  0  0  0  2  0  0  0  0  0  0
    5.4340    9.6810   25.2690 N   0  0  0  0  0  0  0  0  0  0  0  0
    5.9160   10.2240   25.9710 H   0  0  0  0  0  0  0  0  0  0  0  0
    5.1650   10.1110   24.3940 H   0  0  0  0  0  0  0  0  0  0  0  0
  1  7  1  0  0  0  0
  1  6  1  0  0  0  0
  2  1  2  0  0  0  0
  3  2  1  0  0  0  0
  3  4  2  0  0  0  0
  4  5  1  0  0  0  0
  5  6  2  0  0  0  0
  7  8  1  0  0  0  0
  8 16  1  0  0  0  0
  9  8  1  0  0  0  0
  9 14  1  0  0  0  0
 10 12  1  0  0  0  0
 10 11  2  0  0  0  0
 11 13  1  0  0  0  0
 12  9  2  0  0  0  0
 13 14  2  0  0  0  0
 15 10  1  0  0  0  0
 16 19  2  0  0  0  0
 16 17  1  0  0  0  0
 18 16  2  0  0  0  0
 20  4  1  0  0  0  0
 20 21  2  0  0  0  0
 22 20  1  0  0  0  0
 23 22  1  0  0  0  0
 23 24  1  0  0  0  0
 25 23  1  0  0  0  0
M  END
>  <MODEL>
8

>  <REMARK>
 VINA RESULT:    -8.086      3.044      4.011
 INTER + INTRA:         -12.034
 INTER:                 -10.174
 INTRA:                  -1.860
 CONF_INDEPENDENT:        2.088
 UNBOUND:                -1.860
 SMILES CS(=O)(=O)N(Cc1ccc(/C([O-])=N/N)cn1)c1cccc(Cl)c1
 SMILES IDX 7 1 8 2 9 3 10 4 15 5 16 6 6 7 5 8 17 9 21 10 20 11 23 12
 SMILES IDX 19 13 18 14 22 15 2 16 1 17 3 18 4 19 11 20 12 21 13 22
 SMILES IDX 14 23
 H PARENT 14 24 14 25

>  <TORSDO>
F 7

$$$$
redock.pdbqt
 OpenBabel03012515533D

 25 26  0  0  0  0  0  0  0  0999 V2000
    3.8270    4.3730   28.0260 C   0  0  0  0  0  0  0  0  0  0  0  0
    4.3320    4.4810   26.7440 C   0  0  0  0  0  3  0  0  0  0  0  0
    4.8480    5.6920   26.3590 C   0  0  0  0  0  3  0  0  0  0  0  0
    4.8480    6.7690   27.2330 C   0  0  0  0  0  0  0  0  0  0  0  0
    4.3290    6.5720   28.5110 C   0  0  0  0  0  3  0  0  0  0  0  0
    3.8520    5.3830   28.9080 N   0  0  0  0  0  0  0  0  0  0  0  0
    3.2250    3.0880   28.5100 C   0  0  0  0  0  2  0  0  0  0  0  0
    4.1670    2.0250   28.8340 N   0  0  0  0  0  0  0  0  0  0  0  0
    4.1000    1.3990   30.1010 C   0  0  0  0  0  0  0  0  0  0  0  0
    3.0710    0.0270   31.7550 C   0  0  0  0  0  0  0  0  0  0  0  0
    4.0930    0.2580   32.6560 C   0  0  0  0  0  3  0  0  0  0  0  0
    3.0420    0.5820   30.4750 C   0  0  0  0  0  3  0  0  0  0  0  0
    5.1230    1.0820   32.2680 C   0  0  0  0  0  3  0  0  0  0  0  0
    5.1200    1.6670   31.0140 C   0  0  0  0  0  3  0  0  0  0  0  0
    1.7370   -0.9610   32.2370 Cl  0  0  0  0  0  0  0  0  0  0  0  0
    4.8880    1.2970   27.5760 S   0  0  0  0  0  0  0  0  0  0  0  0
    6.5140    1.7950   27.7710 C   0  0  0  0  0  1  0  0  0  0  0  0
    4.4030    1.8660   26.3590 O   0  0  0  0  0  0  0  0  0  0  0  0
    4.8160   -0.1140   27.7730 O   0  0  0  0  0  0  0  0  0  0  0  0
    5.3830    8.0740   26.7750 C   0  0  0  0  0  0  0  0  0  0  0  0
    6.0710    8.8020   27.5120 O   0  0  0  0  0  0  0  0  0  0  0  0
    5.1800    8.3970   25.4990 N   0  0  0  0  0  2  0  0  0  0  0  0
    5.4170    9.7270   25.0740 N   0  0  0  0  0  0  0  0  0  0  0  0
    5.0910   10.5020   25.6330 H   0  0  0  0  0  0  0  0  0  0  0  0
    5.9140    9.9010   24.2110 H   0  0  0  0  0  0  0  0  0  0  0  0
  1  7  1  0  0  0  0
  1  6  1  0  0  0  0
  2  1  2  0  0  0  0
  3  2  1  0  0  0  0
  3  4  2  0  0  0  0
  4  5  1  0  0  0  0
  5  6  2  0  0  0  0
  7  8  1  0  0  0  0
  8  9  1  0  0  0  0
  9 12  2  0  0  0  0
  9 14  1  0  0  0  0
 10 15  1  0  0  0  0
 10 11  2  0  0  0  0
 12 10  1  0  0  0  0
 13 11  1  0  0  0  0
 14 13  2  0  0  0  0
 16 17  1  0  0  0  0
 16 19  2  0  0  0  0
 16  8  1  0  0  0  0
 18 16  2  0  0  0  0
 20  4  1  0  0  0  0
 20 21  2  0  0  0  0
 22 20  1  0  0  0  0
 23 22  1  0  0  0  0
 23 24  1  0  0  0  0
 25 23  1  0  0  0  0
M  END
>  <MODEL>
9

>  <REMARK>
 VINA RESULT:    -6.866      2.178      2.719
 INTER + INTRA:         -10.208
 INTER:                  -8.954
 INTRA:                  -1.254
 CONF_INDEPENDENT:        2.088
 UNBOUND:                -1.254
 SMILES CS(=O)(=O)N(Cc1ccc(/C([O-])=N/N)cn1)c1cccc(Cl)c1
 SMILES IDX 7 1 8 2 9 3 10 4 15 5 16 6 6 7 5 8 17 9 21 10 20 11 23 12
 SMILES IDX 19 13 18 14 22 15 2 16 1 17 3 18 4 19 11 20 12 21 13 22
 SMILES IDX 14 23
 H PARENT 14 24 14 25

>  <TORSDO>
F 7

$$$$
