REMARK SMILES CS(=O)(=O)N(Cc1ccc(/C([O-])=N/N)cn1)c1cccc(Cl)c1
REMARK SMILES IDX 7 1 8 2 9 3 10 4 15 5 16 6 6 7 5 8 17 9 21 10 20 11 23 12
REMARK SMILES IDX 19 13 18 14 22 15 2 16 1 17 3 18 4 19 11 20 12 21 13 22
REMARK SMILES IDX 14 23
REMARK H PARENT 14 24 14 25
ROOT
ATOM      1  C   UNL     1       5.953   1.897  28.600  1.00  0.00     0.061 A 
ATOM      2  C   UNL     1       7.027   1.033  28.687  1.00  0.00     0.026 A 
ATOM      3  C   UNL     1       7.142   0.263  29.816  1.00  0.00     0.013 A 
ATOM      4  C   UNL     1       6.208   0.366  30.838  1.00  0.00     0.005 A 
ATOM      5  C   UNL     1       5.149   1.255  30.665  1.00  0.00     0.120 A 
ATOM      6  N   UNL     1       5.011   1.987  29.551  1.00  0.00    -0.259 NA
ENDROOT
BRANCH   1   7
ATOM      7  C   UNL     1       5.775   2.785  27.407  1.00  0.00     0.191 C 
BRANCH   7   8
ATOM      8  N   UNL     1       4.401   3.130  27.066  1.00  0.00    -0.264 N 
BRANCH   8   9
ATOM      9  C   UNL     1       3.464   2.098  26.827  1.00  0.00     0.053 A 
ATOM     10  C   UNL     1       1.851   0.478  27.499  1.00  0.00     0.043 A 
ATOM     11  C   UNL     1       1.670   0.045  26.200  1.00  0.00     0.020 A 
ATOM     12  C   UNL     1       2.739   1.496  27.847  1.00  0.00     0.047 A 
ATOM     13  C   UNL     1       2.409   0.646  25.208  1.00  0.00     0.004 A 
ATOM     14  C   UNL     1       3.314   1.645  25.516  1.00  0.00     0.027 A 
ATOM     15  Cl  UNL     1       0.974  -0.299  28.771  1.00  0.00    -0.084 Cl
ENDBRANCH   8   9
BRANCH   8  16
ATOM     16  S   UNL     1       3.917   4.626  27.464  1.00  0.00     0.232 S 
ATOM     17  C   UNL     1       5.268   5.566  26.996  1.00  0.00     0.183 C 
ATOM     18  O   UNL     1       3.794   4.722  28.884  1.00  0.00    -0.207 OA
ATOM     19  O   UNL     1       2.809   4.975  26.636  1.00  0.00    -0.207 OA
ENDBRANCH   8  16
ENDBRANCH   7   8
ENDBRANCH   1   7
BRANCH   4  20
ATOM     20  C   UNL     1       6.378  -0.455  32.060  1.00  0.00     0.016 C 
ATOM     21  O   UNL     1       7.476  -0.568  32.633  1.00  0.00    -0.857 OA
BRANCH  20  22
ATOM     22  N   UNL     1       5.279  -0.995  32.585  1.00  0.00    -0.199 NA
BRANCH  22  23
ATOM     23  N   UNL     1       4.052  -0.291  32.501  1.00  0.00    -0.324 N 
ATOM     24  H   UNL     1       4.035   0.710  32.633  1.00  0.00     0.179 HD
ATOM     25  H   UNL     1       3.195  -0.791  32.309  1.00  0.00     0.179 HD
ENDBRANCH  22  23
ENDBRANCH  20  22
ENDBRANCH   4  20
TORSDOF 7
